# generated using pymatgen
data_SiO2
_symmetry_space_group_name_H-M   'P 1'
_cell_length_a   41.55600000
_cell_length_b   41.55600000
_cell_length_c   38.46000000
_cell_angle_alpha   90.00000000
_cell_angle_beta   90.00000000
_cell_angle_gamma   90.00000000
_symmetry_Int_Tables_number   1
_chemical_formula_structural   SiO2
_chemical_formula_sum   'Si1080 O2160'
_cell_volume   66416.61769056
_cell_formula_units_Z   1080
loop_
 _symmetry_equiv_pos_site_id
 _symmetry_equiv_pos_as_xyz
  1  'x, y, z'
loop_
 _atom_site_type_symbol
 _atom_site_label
 _atom_site_symmetry_multiplicity
 _atom_site_fract_x
 _atom_site_fract_y
 _atom_site_fract_z
 _atom_site_occupancy
  Si  Si0  1  0.04465000  0.00000000  0.01973333  1.0
  Si  Si1  1  0.04465000  0.00000000  0.35306667  1.0
  Si  Si2  1  0.04465000  0.00000000  0.68640000  1.0
  Si  Si3  1  0.04465000  0.33333333  0.01973333  1.0
  Si  Si4  1  0.04465000  0.33333333  0.35306667  1.0
  Si  Si5  1  0.04465000  0.33333333  0.68640000  1.0
  Si  Si6  1  0.04465000  0.66666667  0.01973333  1.0
  Si  Si7  1  0.04465000  0.66666667  0.35306667  1.0
  Si  Si8  1  0.04465000  0.66666667  0.68640000  1.0
  Si  Si9  1  0.37798333  0.00000000  0.01973333  1.0
  Si  Si10  1  0.37798333  0.00000000  0.35306667  1.0
  Si  Si11  1  0.37798333  0.00000000  0.68640000  1.0
  Si  Si12  1  0.37798333  0.33333333  0.01973333  1.0
  Si  Si13  1  0.37798333  0.33333333  0.35306667  1.0
  Si  Si14  1  0.37798333  0.33333333  0.68640000  1.0
  Si  Si15  1  0.37798333  0.66666667  0.01973333  1.0
  Si  Si16  1  0.37798333  0.66666667  0.35306667  1.0
  Si  Si17  1  0.37798333  0.66666667  0.68640000  1.0
  Si  Si18  1  0.71131667  0.00000000  0.01973333  1.0
  Si  Si19  1  0.71131667  0.00000000  0.35306667  1.0
  Si  Si20  1  0.71131667  0.00000000  0.68640000  1.0
  Si  Si21  1  0.71131667  0.33333333  0.01973333  1.0
  Si  Si22  1  0.71131667  0.33333333  0.35306667  1.0
  Si  Si23  1  0.71131667  0.33333333  0.68640000  1.0
  Si  Si24  1  0.71131667  0.66666667  0.01973333  1.0
  Si  Si25  1  0.71131667  0.66666667  0.35306667  1.0
  Si  Si26  1  0.71131667  0.66666667  0.68640000  1.0
  Si  Si27  1  0.04465000  0.00000000  0.18640000  1.0
  Si  Si28  1  0.04465000  0.00000000  0.51973333  1.0
  Si  Si29  1  0.04465000  0.00000000  0.85306667  1.0
  Si  Si30  1  0.04465000  0.33333333  0.18640000  1.0
  Si  Si31  1  0.04465000  0.33333333  0.51973333  1.0
  Si  Si32  1  0.04465000  0.33333333  0.85306667  1.0
  Si  Si33  1  0.04465000  0.66666667  0.18640000  1.0
  Si  Si34  1  0.04465000  0.66666667  0.51973333  1.0
  Si  Si35  1  0.04465000  0.66666667  0.85306667  1.0
  Si  Si36  1  0.37798333  0.00000000  0.18640000  1.0
  Si  Si37  1  0.37798333  0.00000000  0.51973333  1.0
  Si  Si38  1  0.37798333  0.00000000  0.85306667  1.0
  Si  Si39  1  0.37798333  0.33333333  0.18640000  1.0
  Si  Si40  1  0.37798333  0.33333333  0.51973333  1.0
  Si  Si41  1  0.37798333  0.33333333  0.85306667  1.0
  Si  Si42  1  0.37798333  0.66666667  0.18640000  1.0
  Si  Si43  1  0.37798333  0.66666667  0.51973333  1.0
  Si  Si44  1  0.37798333  0.66666667  0.85306667  1.0
  Si  Si45  1  0.71131667  0.00000000  0.18640000  1.0
  Si  Si46  1  0.71131667  0.00000000  0.51973333  1.0
  Si  Si47  1  0.71131667  0.00000000  0.85306667  1.0
  Si  Si48  1  0.71131667  0.33333333  0.18640000  1.0
  Si  Si49  1  0.71131667  0.33333333  0.51973333  1.0
  Si  Si50  1  0.71131667  0.33333333  0.85306667  1.0
  Si  Si51  1  0.71131667  0.66666667  0.18640000  1.0
  Si  Si52  1  0.71131667  0.66666667  0.51973333  1.0
  Si  Si53  1  0.71131667  0.66666667  0.85306667  1.0
  Si  Si54  1  0.04465000  0.16666667  0.01973333  1.0
  Si  Si55  1  0.04465000  0.16666667  0.35306667  1.0
  Si  Si56  1  0.04465000  0.16666667  0.68640000  1.0
  Si  Si57  1  0.04465000  0.50000000  0.01973333  1.0
  Si  Si58  1  0.04465000  0.50000000  0.35306667  1.0
  Si  Si59  1  0.04465000  0.50000000  0.68640000  1.0
  Si  Si60  1  0.04465000  0.83333333  0.01973333  1.0
  Si  Si61  1  0.04465000  0.83333333  0.35306667  1.0
  Si  Si62  1  0.04465000  0.83333333  0.68640000  1.0
  Si  Si63  1  0.37798333  0.16666667  0.01973333  1.0
  Si  Si64  1  0.37798333  0.16666667  0.35306667  1.0
  Si  Si65  1  0.37798333  0.16666667  0.68640000  1.0
  Si  Si66  1  0.37798333  0.50000000  0.01973333  1.0
  Si  Si67  1  0.37798333  0.50000000  0.35306667  1.0
  Si  Si68  1  0.37798333  0.50000000  0.68640000  1.0
  Si  Si69  1  0.37798333  0.83333333  0.01973333  1.0
  Si  Si70  1  0.37798333  0.83333333  0.35306667  1.0
  Si  Si71  1  0.37798333  0.83333333  0.68640000  1.0
  Si  Si72  1  0.71131667  0.16666667  0.01973333  1.0
  Si  Si73  1  0.71131667  0.16666667  0.35306667  1.0
  Si  Si74  1  0.71131667  0.16666667  0.68640000  1.0
  Si  Si75  1  0.71131667  0.50000000  0.01973333  1.0
  Si  Si76  1  0.71131667  0.50000000  0.35306667  1.0
  Si  Si77  1  0.71131667  0.50000000  0.68640000  1.0
  Si  Si78  1  0.71131667  0.83333333  0.01973333  1.0
  Si  Si79  1  0.71131667  0.83333333  0.35306667  1.0
  Si  Si80  1  0.71131667  0.83333333  0.68640000  1.0
  Si  Si81  1  0.04465000  0.16666667  0.18640000  1.0
  Si  Si82  1  0.04465000  0.16666667  0.51973333  1.0
  Si  Si83  1  0.04465000  0.16666667  0.85306667  1.0
  Si  Si84  1  0.04465000  0.50000000  0.18640000  1.0
  Si  Si85  1  0.04465000  0.50000000  0.51973333  1.0
  Si  Si86  1  0.04465000  0.50000000  0.85306667  1.0
  Si  Si87  1  0.04465000  0.83333333  0.18640000  1.0
  Si  Si88  1  0.04465000  0.83333333  0.51973333  1.0
  Si  Si89  1  0.04465000  0.83333333  0.85306667  1.0
  Si  Si90  1  0.37798333  0.16666667  0.18640000  1.0
  Si  Si91  1  0.37798333  0.16666667  0.51973333  1.0
  Si  Si92  1  0.37798333  0.16666667  0.85306667  1.0
  Si  Si93  1  0.37798333  0.50000000  0.18640000  1.0
  Si  Si94  1  0.37798333  0.50000000  0.51973333  1.0
  Si  Si95  1  0.37798333  0.50000000  0.85306667  1.0
  Si  Si96  1  0.37798333  0.83333333  0.18640000  1.0
  Si  Si97  1  0.37798333  0.83333333  0.51973333  1.0
  Si  Si98  1  0.37798333  0.83333333  0.85306667  1.0
  Si  Si99  1  0.71131667  0.16666667  0.18640000  1.0
  Si  Si100  1  0.71131667  0.16666667  0.51973333  1.0
  Si  Si101  1  0.71131667  0.16666667  0.85306667  1.0
  Si  Si102  1  0.71131667  0.50000000  0.18640000  1.0
  Si  Si103  1  0.71131667  0.50000000  0.51973333  1.0
  Si  Si104  1  0.71131667  0.50000000  0.85306667  1.0
  Si  Si105  1  0.71131667  0.83333333  0.18640000  1.0
  Si  Si106  1  0.71131667  0.83333333  0.51973333  1.0
  Si  Si107  1  0.71131667  0.83333333  0.85306667  1.0
  Si  Si108  1  0.21131667  0.00000000  0.01973333  1.0
  Si  Si109  1  0.21131667  0.00000000  0.35306667  1.0
  Si  Si110  1  0.21131667  0.00000000  0.68640000  1.0
  Si  Si111  1  0.21131667  0.33333333  0.01973333  1.0
  Si  Si112  1  0.21131667  0.33333333  0.35306667  1.0
  Si  Si113  1  0.21131667  0.33333333  0.68640000  1.0
  Si  Si114  1  0.21131667  0.66666667  0.01973333  1.0
  Si  Si115  1  0.21131667  0.66666667  0.35306667  1.0
  Si  Si116  1  0.21131667  0.66666667  0.68640000  1.0
  Si  Si117  1  0.54465000  0.00000000  0.01973333  1.0
  Si  Si118  1  0.54465000  0.00000000  0.35306667  1.0
  Si  Si119  1  0.54465000  0.00000000  0.68640000  1.0
  Si  Si120  1  0.54465000  0.33333333  0.01973333  1.0
  Si  Si121  1  0.54465000  0.33333333  0.35306667  1.0
  Si  Si122  1  0.54465000  0.33333333  0.68640000  1.0
  Si  Si123  1  0.54465000  0.66666667  0.01973333  1.0
  Si  Si124  1  0.54465000  0.66666667  0.35306667  1.0
  Si  Si125  1  0.54465000  0.66666667  0.68640000  1.0
  Si  Si126  1  0.87798333  0.00000000  0.01973333  1.0
  Si  Si127  1  0.87798333  0.00000000  0.35306667  1.0
  Si  Si128  1  0.87798333  0.00000000  0.68640000  1.0
  Si  Si129  1  0.87798333  0.33333333  0.01973333  1.0
  Si  Si130  1  0.87798333  0.33333333  0.35306667  1.0
  Si  Si131  1  0.87798333  0.33333333  0.68640000  1.0
  Si  Si132  1  0.87798333  0.66666667  0.01973333  1.0
  Si  Si133  1  0.87798333  0.66666667  0.35306667  1.0
  Si  Si134  1  0.87798333  0.66666667  0.68640000  1.0
  Si  Si135  1  0.21131667  0.00000000  0.18640000  1.0
  Si  Si136  1  0.21131667  0.00000000  0.51973333  1.0
  Si  Si137  1  0.21131667  0.00000000  0.85306667  1.0
  Si  Si138  1  0.21131667  0.33333333  0.18640000  1.0
  Si  Si139  1  0.21131667  0.33333333  0.51973333  1.0
  Si  Si140  1  0.21131667  0.33333333  0.85306667  1.0
  Si  Si141  1  0.21131667  0.66666667  0.18640000  1.0
  Si  Si142  1  0.21131667  0.66666667  0.51973333  1.0
  Si  Si143  1  0.21131667  0.66666667  0.85306667  1.0
  Si  Si144  1  0.54465000  0.00000000  0.18640000  1.0
  Si  Si145  1  0.54465000  0.00000000  0.51973333  1.0
  Si  Si146  1  0.54465000  0.00000000  0.85306667  1.0
  Si  Si147  1  0.54465000  0.33333333  0.18640000  1.0
  Si  Si148  1  0.54465000  0.33333333  0.51973333  1.0
  Si  Si149  1  0.54465000  0.33333333  0.85306667  1.0
  Si  Si150  1  0.54465000  0.66666667  0.18640000  1.0
  Si  Si151  1  0.54465000  0.66666667  0.51973333  1.0
  Si  Si152  1  0.54465000  0.66666667  0.85306667  1.0
  Si  Si153  1  0.87798333  0.00000000  0.18640000  1.0
  Si  Si154  1  0.87798333  0.00000000  0.51973333  1.0
  Si  Si155  1  0.87798333  0.00000000  0.85306667  1.0
  Si  Si156  1  0.87798333  0.33333333  0.18640000  1.0
  Si  Si157  1  0.87798333  0.33333333  0.51973333  1.0
  Si  Si158  1  0.87798333  0.33333333  0.85306667  1.0
  Si  Si159  1  0.87798333  0.66666667  0.18640000  1.0
  Si  Si160  1  0.87798333  0.66666667  0.51973333  1.0
  Si  Si161  1  0.87798333  0.66666667  0.85306667  1.0
  Si  Si162  1  0.21131667  0.16666667  0.01973333  1.0
  Si  Si163  1  0.21131667  0.16666667  0.35306667  1.0
  Si  Si164  1  0.21131667  0.16666667  0.68640000  1.0
  Si  Si165  1  0.21131667  0.50000000  0.01973333  1.0
  Si  Si166  1  0.21131667  0.50000000  0.35306667  1.0
  Si  Si167  1  0.21131667  0.50000000  0.68640000  1.0
  Si  Si168  1  0.21131667  0.83333333  0.01973333  1.0
  Si  Si169  1  0.21131667  0.83333333  0.35306667  1.0
  Si  Si170  1  0.21131667  0.83333333  0.68640000  1.0
  Si  Si171  1  0.54465000  0.16666667  0.01973333  1.0
  Si  Si172  1  0.54465000  0.16666667  0.35306667  1.0
  Si  Si173  1  0.54465000  0.16666667  0.68640000  1.0
  Si  Si174  1  0.54465000  0.50000000  0.01973333  1.0
  Si  Si175  1  0.54465000  0.50000000  0.35306667  1.0
  Si  Si176  1  0.54465000  0.50000000  0.68640000  1.0
  Si  Si177  1  0.54465000  0.83333333  0.01973333  1.0
  Si  Si178  1  0.54465000  0.83333333  0.35306667  1.0
  Si  Si179  1  0.54465000  0.83333333  0.68640000  1.0
  Si  Si180  1  0.87798333  0.16666667  0.01973333  1.0
  Si  Si181  1  0.87798333  0.16666667  0.35306667  1.0
  Si  Si182  1  0.87798333  0.16666667  0.68640000  1.0
  Si  Si183  1  0.87798333  0.50000000  0.01973333  1.0
  Si  Si184  1  0.87798333  0.50000000  0.35306667  1.0
  Si  Si185  1  0.87798333  0.50000000  0.68640000  1.0
  Si  Si186  1  0.87798333  0.83333333  0.01973333  1.0
  Si  Si187  1  0.87798333  0.83333333  0.35306667  1.0
  Si  Si188  1  0.87798333  0.83333333  0.68640000  1.0
  Si  Si189  1  0.21131667  0.16666667  0.18640000  1.0
  Si  Si190  1  0.21131667  0.16666667  0.51973333  1.0
  Si  Si191  1  0.21131667  0.16666667  0.85306667  1.0
  Si  Si192  1  0.21131667  0.50000000  0.18640000  1.0
  Si  Si193  1  0.21131667  0.50000000  0.51973333  1.0
  Si  Si194  1  0.21131667  0.50000000  0.85306667  1.0
  Si  Si195  1  0.21131667  0.83333333  0.18640000  1.0
  Si  Si196  1  0.21131667  0.83333333  0.51973333  1.0
  Si  Si197  1  0.21131667  0.83333333  0.85306667  1.0
  Si  Si198  1  0.54465000  0.16666667  0.18640000  1.0
  Si  Si199  1  0.54465000  0.16666667  0.51973333  1.0
  Si  Si200  1  0.54465000  0.16666667  0.85306667  1.0
  Si  Si201  1  0.54465000  0.50000000  0.18640000  1.0
  Si  Si202  1  0.54465000  0.50000000  0.51973333  1.0
  Si  Si203  1  0.54465000  0.50000000  0.85306667  1.0
  Si  Si204  1  0.54465000  0.83333333  0.18640000  1.0
  Si  Si205  1  0.54465000  0.83333333  0.51973333  1.0
  Si  Si206  1  0.54465000  0.83333333  0.85306667  1.0
  Si  Si207  1  0.87798333  0.16666667  0.18640000  1.0
  Si  Si208  1  0.87798333  0.16666667  0.51973333  1.0
  Si  Si209  1  0.87798333  0.16666667  0.85306667  1.0
  Si  Si210  1  0.87798333  0.50000000  0.18640000  1.0
  Si  Si211  1  0.87798333  0.50000000  0.51973333  1.0
  Si  Si212  1  0.87798333  0.50000000  0.85306667  1.0
  Si  Si213  1  0.87798333  0.83333333  0.18640000  1.0
  Si  Si214  1  0.87798333  0.83333333  0.51973333  1.0
  Si  Si215  1  0.87798333  0.83333333  0.85306667  1.0
  Si  Si216  1  1.00000000  0.04465000  0.14693333  1.0
  Si  Si217  1  1.00000000  0.04465000  0.48026667  1.0
  Si  Si218  1  1.00000000  0.04465000  0.81360000  1.0
  Si  Si219  1  1.00000000  0.37798333  0.14693333  1.0
  Si  Si220  1  1.00000000  0.37798333  0.48026667  1.0
  Si  Si221  1  1.00000000  0.37798333  0.81360000  1.0
  Si  Si222  1  1.00000000  0.71131667  0.14693333  1.0
  Si  Si223  1  1.00000000  0.71131667  0.48026667  1.0
  Si  Si224  1  1.00000000  0.71131667  0.81360000  1.0
  Si  Si225  1  0.33333333  0.04465000  0.14693333  1.0
  Si  Si226  1  0.33333333  0.04465000  0.48026667  1.0
  Si  Si227  1  0.33333333  0.04465000  0.81360000  1.0
  Si  Si228  1  0.33333333  0.37798333  0.14693333  1.0
  Si  Si229  1  0.33333333  0.37798333  0.48026667  1.0
  Si  Si230  1  0.33333333  0.37798333  0.81360000  1.0
  Si  Si231  1  0.33333333  0.71131667  0.14693333  1.0
  Si  Si232  1  0.33333333  0.71131667  0.48026667  1.0
  Si  Si233  1  0.33333333  0.71131667  0.81360000  1.0
  Si  Si234  1  0.66666667  0.04465000  0.14693333  1.0
  Si  Si235  1  0.66666667  0.04465000  0.48026667  1.0
  Si  Si236  1  0.66666667  0.04465000  0.81360000  1.0
  Si  Si237  1  0.66666667  0.37798333  0.14693333  1.0
  Si  Si238  1  0.66666667  0.37798333  0.48026667  1.0
  Si  Si239  1  0.66666667  0.37798333  0.81360000  1.0
  Si  Si240  1  0.66666667  0.71131667  0.14693333  1.0
  Si  Si241  1  0.66666667  0.71131667  0.48026667  1.0
  Si  Si242  1  0.66666667  0.71131667  0.81360000  1.0
  Si  Si243  1  1.00000000  0.04465000  0.31360000  1.0
  Si  Si244  1  1.00000000  0.04465000  0.64693333  1.0
  Si  Si245  1  1.00000000  0.04465000  0.98026667  1.0
  Si  Si246  1  1.00000000  0.37798333  0.31360000  1.0
  Si  Si247  1  1.00000000  0.37798333  0.64693333  1.0
  Si  Si248  1  1.00000000  0.37798333  0.98026667  1.0
  Si  Si249  1  1.00000000  0.71131667  0.31360000  1.0
  Si  Si250  1  1.00000000  0.71131667  0.64693333  1.0
  Si  Si251  1  1.00000000  0.71131667  0.98026667  1.0
  Si  Si252  1  0.33333333  0.04465000  0.31360000  1.0
  Si  Si253  1  0.33333333  0.04465000  0.64693333  1.0
  Si  Si254  1  0.33333333  0.04465000  0.98026667  1.0
  Si  Si255  1  0.33333333  0.37798333  0.31360000  1.0
  Si  Si256  1  0.33333333  0.37798333  0.64693333  1.0
  Si  Si257  1  0.33333333  0.37798333  0.98026667  1.0
  Si  Si258  1  0.33333333  0.71131667  0.31360000  1.0
  Si  Si259  1  0.33333333  0.71131667  0.64693333  1.0
  Si  Si260  1  0.33333333  0.71131667  0.98026667  1.0
  Si  Si261  1  0.66666667  0.04465000  0.31360000  1.0
  Si  Si262  1  0.66666667  0.04465000  0.64693333  1.0
  Si  Si263  1  0.66666667  0.04465000  0.98026667  1.0
  Si  Si264  1  0.66666667  0.37798333  0.31360000  1.0
  Si  Si265  1  0.66666667  0.37798333  0.64693333  1.0
  Si  Si266  1  0.66666667  0.37798333  0.98026667  1.0
  Si  Si267  1  0.66666667  0.71131667  0.31360000  1.0
  Si  Si268  1  0.66666667  0.71131667  0.64693333  1.0
  Si  Si269  1  0.66666667  0.71131667  0.98026667  1.0
  Si  Si270  1  1.00000000  0.21131667  0.14693333  1.0
  Si  Si271  1  1.00000000  0.21131667  0.48026667  1.0
  Si  Si272  1  1.00000000  0.21131667  0.81360000  1.0
  Si  Si273  1  0.00000000  0.54465000  0.14693333  1.0
  Si  Si274  1  0.00000000  0.54465000  0.48026667  1.0
  Si  Si275  1  0.00000000  0.54465000  0.81360000  1.0
  Si  Si276  1  1.00000000  0.87798333  0.14693333  1.0
  Si  Si277  1  1.00000000  0.87798333  0.48026667  1.0
  Si  Si278  1  1.00000000  0.87798333  0.81360000  1.0
  Si  Si279  1  0.33333333  0.21131667  0.14693333  1.0
  Si  Si280  1  0.33333333  0.21131667  0.48026667  1.0
  Si  Si281  1  0.33333333  0.21131667  0.81360000  1.0
  Si  Si282  1  0.33333333  0.54465000  0.14693333  1.0
  Si  Si283  1  0.33333333  0.54465000  0.48026667  1.0
  Si  Si284  1  0.33333333  0.54465000  0.81360000  1.0
  Si  Si285  1  0.33333333  0.87798333  0.14693333  1.0
  Si  Si286  1  0.33333333  0.87798333  0.48026667  1.0
  Si  Si287  1  0.33333333  0.87798333  0.81360000  1.0
  Si  Si288  1  0.66666667  0.21131667  0.14693333  1.0
  Si  Si289  1  0.66666667  0.21131667  0.48026667  1.0
  Si  Si290  1  0.66666667  0.21131667  0.81360000  1.0
  Si  Si291  1  0.66666667  0.54465000  0.14693333  1.0
  Si  Si292  1  0.66666667  0.54465000  0.48026667  1.0
  Si  Si293  1  0.66666667  0.54465000  0.81360000  1.0
  Si  Si294  1  0.66666667  0.87798333  0.14693333  1.0
  Si  Si295  1  0.66666667  0.87798333  0.48026667  1.0
  Si  Si296  1  0.66666667  0.87798333  0.81360000  1.0
  Si  Si297  1  1.00000000  0.21131667  0.31360000  1.0
  Si  Si298  1  1.00000000  0.21131667  0.64693333  1.0
  Si  Si299  1  1.00000000  0.21131667  0.98026667  1.0
  Si  Si300  1  0.00000000  0.54465000  0.31360000  1.0
  Si  Si301  1  0.00000000  0.54465000  0.64693333  1.0
  Si  Si302  1  0.00000000  0.54465000  0.98026667  1.0
  Si  Si303  1  1.00000000  0.87798333  0.31360000  1.0
  Si  Si304  1  1.00000000  0.87798333  0.64693333  1.0
  Si  Si305  1  1.00000000  0.87798333  0.98026667  1.0
  Si  Si306  1  0.33333333  0.21131667  0.31360000  1.0
  Si  Si307  1  0.33333333  0.21131667  0.64693333  1.0
  Si  Si308  1  0.33333333  0.21131667  0.98026667  1.0
  Si  Si309  1  0.33333333  0.54465000  0.31360000  1.0
  Si  Si310  1  0.33333333  0.54465000  0.64693333  1.0
  Si  Si311  1  0.33333333  0.54465000  0.98026667  1.0
  Si  Si312  1  0.33333333  0.87798333  0.31360000  1.0
  Si  Si313  1  0.33333333  0.87798333  0.64693333  1.0
  Si  Si314  1  0.33333333  0.87798333  0.98026667  1.0
  Si  Si315  1  0.66666667  0.21131667  0.31360000  1.0
  Si  Si316  1  0.66666667  0.21131667  0.64693333  1.0
  Si  Si317  1  0.66666667  0.21131667  0.98026667  1.0
  Si  Si318  1  0.66666667  0.54465000  0.31360000  1.0
  Si  Si319  1  0.66666667  0.54465000  0.64693333  1.0
  Si  Si320  1  0.66666667  0.54465000  0.98026667  1.0
  Si  Si321  1  0.66666667  0.87798333  0.31360000  1.0
  Si  Si322  1  0.66666667  0.87798333  0.64693333  1.0
  Si  Si323  1  0.66666667  0.87798333  0.98026667  1.0
  Si  Si324  1  0.16666667  0.04465000  0.14693333  1.0
  Si  Si325  1  0.16666667  0.04465000  0.48026667  1.0
  Si  Si326  1  0.16666667  0.04465000  0.81360000  1.0
  Si  Si327  1  0.16666667  0.37798333  0.14693333  1.0
  Si  Si328  1  0.16666667  0.37798333  0.48026667  1.0
  Si  Si329  1  0.16666667  0.37798333  0.81360000  1.0
  Si  Si330  1  0.16666667  0.71131667  0.14693333  1.0
  Si  Si331  1  0.16666667  0.71131667  0.48026667  1.0
  Si  Si332  1  0.16666667  0.71131667  0.81360000  1.0
  Si  Si333  1  0.50000000  0.04465000  0.14693333  1.0
  Si  Si334  1  0.50000000  0.04465000  0.48026667  1.0
  Si  Si335  1  0.50000000  0.04465000  0.81360000  1.0
  Si  Si336  1  0.50000000  0.37798333  0.14693333  1.0
  Si  Si337  1  0.50000000  0.37798333  0.48026667  1.0
  Si  Si338  1  0.50000000  0.37798333  0.81360000  1.0
  Si  Si339  1  0.50000000  0.71131667  0.14693333  1.0
  Si  Si340  1  0.50000000  0.71131667  0.48026667  1.0
  Si  Si341  1  0.50000000  0.71131667  0.81360000  1.0
  Si  Si342  1  0.83333333  0.04465000  0.14693333  1.0
  Si  Si343  1  0.83333333  0.04465000  0.48026667  1.0
  Si  Si344  1  0.83333333  0.04465000  0.81360000  1.0
  Si  Si345  1  0.83333333  0.37798333  0.14693333  1.0
  Si  Si346  1  0.83333333  0.37798333  0.48026667  1.0
  Si  Si347  1  0.83333333  0.37798333  0.81360000  1.0
  Si  Si348  1  0.83333333  0.71131667  0.14693333  1.0
  Si  Si349  1  0.83333333  0.71131667  0.48026667  1.0
  Si  Si350  1  0.83333333  0.71131667  0.81360000  1.0
  Si  Si351  1  0.16666667  0.04465000  0.31360000  1.0
  Si  Si352  1  0.16666667  0.04465000  0.64693333  1.0
  Si  Si353  1  0.16666667  0.04465000  0.98026667  1.0
  Si  Si354  1  0.16666667  0.37798333  0.31360000  1.0
  Si  Si355  1  0.16666667  0.37798333  0.64693333  1.0
  Si  Si356  1  0.16666667  0.37798333  0.98026667  1.0
  Si  Si357  1  0.16666667  0.71131667  0.31360000  1.0
  Si  Si358  1  0.16666667  0.71131667  0.64693333  1.0
  Si  Si359  1  0.16666667  0.71131667  0.98026667  1.0
  Si  Si360  1  0.50000000  0.04465000  0.31360000  1.0
  Si  Si361  1  0.50000000  0.04465000  0.64693333  1.0
  Si  Si362  1  0.50000000  0.04465000  0.98026667  1.0
  Si  Si363  1  0.50000000  0.37798333  0.31360000  1.0
  Si  Si364  1  0.50000000  0.37798333  0.64693333  1.0
  Si  Si365  1  0.50000000  0.37798333  0.98026667  1.0
  Si  Si366  1  0.50000000  0.71131667  0.31360000  1.0
  Si  Si367  1  0.50000000  0.71131667  0.64693333  1.0
  Si  Si368  1  0.50000000  0.71131667  0.98026667  1.0
  Si  Si369  1  0.83333333  0.04465000  0.31360000  1.0
  Si  Si370  1  0.83333333  0.04465000  0.64693333  1.0
  Si  Si371  1  0.83333333  0.04465000  0.98026667  1.0
  Si  Si372  1  0.83333333  0.37798333  0.31360000  1.0
  Si  Si373  1  0.83333333  0.37798333  0.64693333  1.0
  Si  Si374  1  0.83333333  0.37798333  0.98026667  1.0
  Si  Si375  1  0.83333333  0.71131667  0.31360000  1.0
  Si  Si376  1  0.83333333  0.71131667  0.64693333  1.0
  Si  Si377  1  0.83333333  0.71131667  0.98026667  1.0
  Si  Si378  1  0.16666667  0.21131667  0.14693333  1.0
  Si  Si379  1  0.16666667  0.21131667  0.48026667  1.0
  Si  Si380  1  0.16666667  0.21131667  0.81360000  1.0
  Si  Si381  1  0.16666667  0.54465000  0.14693333  1.0
  Si  Si382  1  0.16666667  0.54465000  0.48026667  1.0
  Si  Si383  1  0.16666667  0.54465000  0.81360000  1.0
  Si  Si384  1  0.16666667  0.87798333  0.14693333  1.0
  Si  Si385  1  0.16666667  0.87798333  0.48026667  1.0
  Si  Si386  1  0.16666667  0.87798333  0.81360000  1.0
  Si  Si387  1  0.50000000  0.21131667  0.14693333  1.0
  Si  Si388  1  0.50000000  0.21131667  0.48026667  1.0
  Si  Si389  1  0.50000000  0.21131667  0.81360000  1.0
  Si  Si390  1  0.50000000  0.54465000  0.14693333  1.0
  Si  Si391  1  0.50000000  0.54465000  0.48026667  1.0
  Si  Si392  1  0.50000000  0.54465000  0.81360000  1.0
  Si  Si393  1  0.50000000  0.87798333  0.14693333  1.0
  Si  Si394  1  0.50000000  0.87798333  0.48026667  1.0
  Si  Si395  1  0.50000000  0.87798333  0.81360000  1.0
  Si  Si396  1  0.83333333  0.21131667  0.14693333  1.0
  Si  Si397  1  0.83333333  0.21131667  0.48026667  1.0
  Si  Si398  1  0.83333333  0.21131667  0.81360000  1.0
  Si  Si399  1  0.83333333  0.54465000  0.14693333  1.0
  Si  Si400  1  0.83333333  0.54465000  0.48026667  1.0
  Si  Si401  1  0.83333333  0.54465000  0.81360000  1.0
  Si  Si402  1  0.83333333  0.87798333  0.14693333  1.0
  Si  Si403  1  0.83333333  0.87798333  0.48026667  1.0
  Si  Si404  1  0.83333333  0.87798333  0.81360000  1.0
  Si  Si405  1  0.16666667  0.21131667  0.31360000  1.0
  Si  Si406  1  0.16666667  0.21131667  0.64693333  1.0
  Si  Si407  1  0.16666667  0.21131667  0.98026667  1.0
  Si  Si408  1  0.16666667  0.54465000  0.31360000  1.0
  Si  Si409  1  0.16666667  0.54465000  0.64693333  1.0
  Si  Si410  1  0.16666667  0.54465000  0.98026667  1.0
  Si  Si411  1  0.16666667  0.87798333  0.31360000  1.0
  Si  Si412  1  0.16666667  0.87798333  0.64693333  1.0
  Si  Si413  1  0.16666667  0.87798333  0.98026667  1.0
  Si  Si414  1  0.50000000  0.21131667  0.31360000  1.0
  Si  Si415  1  0.50000000  0.21131667  0.64693333  1.0
  Si  Si416  1  0.50000000  0.21131667  0.98026667  1.0
  Si  Si417  1  0.50000000  0.54465000  0.31360000  1.0
  Si  Si418  1  0.50000000  0.54465000  0.64693333  1.0
  Si  Si419  1  0.50000000  0.54465000  0.98026667  1.0
  Si  Si420  1  0.50000000  0.87798333  0.31360000  1.0
  Si  Si421  1  0.50000000  0.87798333  0.64693333  1.0
  Si  Si422  1  0.50000000  0.87798333  0.98026667  1.0
  Si  Si423  1  0.83333333  0.21131667  0.31360000  1.0
  Si  Si424  1  0.83333333  0.21131667  0.64693333  1.0
  Si  Si425  1  0.83333333  0.21131667  0.98026667  1.0
  Si  Si426  1  0.83333333  0.54465000  0.31360000  1.0
  Si  Si427  1  0.83333333  0.54465000  0.64693333  1.0
  Si  Si428  1  0.83333333  0.54465000  0.98026667  1.0
  Si  Si429  1  0.83333333  0.87798333  0.31360000  1.0
  Si  Si430  1  0.83333333  0.87798333  0.64693333  1.0
  Si  Si431  1  0.83333333  0.87798333  0.98026667  1.0
  Si  Si432  1  0.12201667  0.00000000  0.01973333  1.0
  Si  Si433  1  0.12201667  0.00000000  0.35306667  1.0
  Si  Si434  1  0.12201667  0.00000000  0.68640000  1.0
  Si  Si435  1  0.12201667  0.33333333  0.01973333  1.0
  Si  Si436  1  0.12201667  0.33333333  0.35306667  1.0
  Si  Si437  1  0.12201667  0.33333333  0.68640000  1.0
  Si  Si438  1  0.12201667  0.66666667  0.01973333  1.0
  Si  Si439  1  0.12201667  0.66666667  0.35306667  1.0
  Si  Si440  1  0.12201667  0.66666667  0.68640000  1.0
  Si  Si441  1  0.45535000  0.00000000  0.01973333  1.0
  Si  Si442  1  0.45535000  0.00000000  0.35306667  1.0
  Si  Si443  1  0.45535000  0.00000000  0.68640000  1.0
  Si  Si444  1  0.45535000  0.33333333  0.01973333  1.0
  Si  Si445  1  0.45535000  0.33333333  0.35306667  1.0
  Si  Si446  1  0.45535000  0.33333333  0.68640000  1.0
  Si  Si447  1  0.45535000  0.66666667  0.01973333  1.0
  Si  Si448  1  0.45535000  0.66666667  0.35306667  1.0
  Si  Si449  1  0.45535000  0.66666667  0.68640000  1.0
  Si  Si450  1  0.78868333  0.00000000  0.01973333  1.0
  Si  Si451  1  0.78868333  0.00000000  0.35306667  1.0
  Si  Si452  1  0.78868333  0.00000000  0.68640000  1.0
  Si  Si453  1  0.78868333  0.33333333  0.01973333  1.0
  Si  Si454  1  0.78868333  0.33333333  0.35306667  1.0
  Si  Si455  1  0.78868333  0.33333333  0.68640000  1.0
  Si  Si456  1  0.78868333  0.66666667  0.01973333  1.0
  Si  Si457  1  0.78868333  0.66666667  0.35306667  1.0
  Si  Si458  1  0.78868333  0.66666667  0.68640000  1.0
  Si  Si459  1  0.12201667  0.00000000  0.18640000  1.0
  Si  Si460  1  0.12201667  0.00000000  0.51973333  1.0
  Si  Si461  1  0.12201667  0.00000000  0.85306667  1.0
  Si  Si462  1  0.12201667  0.33333333  0.18640000  1.0
  Si  Si463  1  0.12201667  0.33333333  0.51973333  1.0
  Si  Si464  1  0.12201667  0.33333333  0.85306667  1.0
  Si  Si465  1  0.12201667  0.66666667  0.18640000  1.0
  Si  Si466  1  0.12201667  0.66666667  0.51973333  1.0
  Si  Si467  1  0.12201667  0.66666667  0.85306667  1.0
  Si  Si468  1  0.45535000  0.00000000  0.18640000  1.0
  Si  Si469  1  0.45535000  0.00000000  0.51973333  1.0
  Si  Si470  1  0.45535000  0.00000000  0.85306667  1.0
  Si  Si471  1  0.45535000  0.33333333  0.18640000  1.0
  Si  Si472  1  0.45535000  0.33333333  0.51973333  1.0
  Si  Si473  1  0.45535000  0.33333333  0.85306667  1.0
  Si  Si474  1  0.45535000  0.66666667  0.18640000  1.0
  Si  Si475  1  0.45535000  0.66666667  0.51973333  1.0
  Si  Si476  1  0.45535000  0.66666667  0.85306667  1.0
  Si  Si477  1  0.78868333  0.00000000  0.18640000  1.0
  Si  Si478  1  0.78868333  0.00000000  0.51973333  1.0
  Si  Si479  1  0.78868333  0.00000000  0.85306667  1.0
  Si  Si480  1  0.78868333  0.33333333  0.18640000  1.0
  Si  Si481  1  0.78868333  0.33333333  0.51973333  1.0
  Si  Si482  1  0.78868333  0.33333333  0.85306667  1.0
  Si  Si483  1  0.78868333  0.66666667  0.18640000  1.0
  Si  Si484  1  0.78868333  0.66666667  0.51973333  1.0
  Si  Si485  1  0.78868333  0.66666667  0.85306667  1.0
  Si  Si486  1  0.12201667  0.16666667  0.01973333  1.0
  Si  Si487  1  0.12201667  0.16666667  0.35306667  1.0
  Si  Si488  1  0.12201667  0.16666667  0.68640000  1.0
  Si  Si489  1  0.12201667  0.50000000  0.01973333  1.0
  Si  Si490  1  0.12201667  0.50000000  0.35306667  1.0
  Si  Si491  1  0.12201667  0.50000000  0.68640000  1.0
  Si  Si492  1  0.12201667  0.83333333  0.01973333  1.0
  Si  Si493  1  0.12201667  0.83333333  0.35306667  1.0
  Si  Si494  1  0.12201667  0.83333333  0.68640000  1.0
  Si  Si495  1  0.45535000  0.16666667  0.01973333  1.0
  Si  Si496  1  0.45535000  0.16666667  0.35306667  1.0
  Si  Si497  1  0.45535000  0.16666667  0.68640000  1.0
  Si  Si498  1  0.45535000  0.50000000  0.01973333  1.0
  Si  Si499  1  0.45535000  0.50000000  0.35306667  1.0
  Si  Si500  1  0.45535000  0.50000000  0.68640000  1.0
  Si  Si501  1  0.45535000  0.83333333  0.01973333  1.0
  Si  Si502  1  0.45535000  0.83333333  0.35306667  1.0
  Si  Si503  1  0.45535000  0.83333333  0.68640000  1.0
  Si  Si504  1  0.78868333  0.16666667  0.01973333  1.0
  Si  Si505  1  0.78868333  0.16666667  0.35306667  1.0
  Si  Si506  1  0.78868333  0.16666667  0.68640000  1.0
  Si  Si507  1  0.78868333  0.50000000  0.01973333  1.0
  Si  Si508  1  0.78868333  0.50000000  0.35306667  1.0
  Si  Si509  1  0.78868333  0.50000000  0.68640000  1.0
  Si  Si510  1  0.78868333  0.83333333  0.01973333  1.0
  Si  Si511  1  0.78868333  0.83333333  0.35306667  1.0
  Si  Si512  1  0.78868333  0.83333333  0.68640000  1.0
  Si  Si513  1  0.12201667  0.16666667  0.18640000  1.0
  Si  Si514  1  0.12201667  0.16666667  0.51973333  1.0
  Si  Si515  1  0.12201667  0.16666667  0.85306667  1.0
  Si  Si516  1  0.12201667  0.50000000  0.18640000  1.0
  Si  Si517  1  0.12201667  0.50000000  0.51973333  1.0
  Si  Si518  1  0.12201667  0.50000000  0.85306667  1.0
  Si  Si519  1  0.12201667  0.83333333  0.18640000  1.0
  Si  Si520  1  0.12201667  0.83333333  0.51973333  1.0
  Si  Si521  1  0.12201667  0.83333333  0.85306667  1.0
  Si  Si522  1  0.45535000  0.16666667  0.18640000  1.0
  Si  Si523  1  0.45535000  0.16666667  0.51973333  1.0
  Si  Si524  1  0.45535000  0.16666667  0.85306667  1.0
  Si  Si525  1  0.45535000  0.50000000  0.18640000  1.0
  Si  Si526  1  0.45535000  0.50000000  0.51973333  1.0
  Si  Si527  1  0.45535000  0.50000000  0.85306667  1.0
  Si  Si528  1  0.45535000  0.83333333  0.18640000  1.0
  Si  Si529  1  0.45535000  0.83333333  0.51973333  1.0
  Si  Si530  1  0.45535000  0.83333333  0.85306667  1.0
  Si  Si531  1  0.78868333  0.16666667  0.18640000  1.0
  Si  Si532  1  0.78868333  0.16666667  0.51973333  1.0
  Si  Si533  1  0.78868333  0.16666667  0.85306667  1.0
  Si  Si534  1  0.78868333  0.50000000  0.18640000  1.0
  Si  Si535  1  0.78868333  0.50000000  0.51973333  1.0
  Si  Si536  1  0.78868333  0.50000000  0.85306667  1.0
  Si  Si537  1  0.78868333  0.83333333  0.18640000  1.0
  Si  Si538  1  0.78868333  0.83333333  0.51973333  1.0
  Si  Si539  1  0.78868333  0.83333333  0.85306667  1.0
  Si  Si540  1  0.28868333  0.00000000  0.01973333  1.0
  Si  Si541  1  0.28868333  0.00000000  0.35306667  1.0
  Si  Si542  1  0.28868333  0.00000000  0.68640000  1.0
  Si  Si543  1  0.28868333  0.33333333  0.01973333  1.0
  Si  Si544  1  0.28868333  0.33333333  0.35306667  1.0
  Si  Si545  1  0.28868333  0.33333333  0.68640000  1.0
  Si  Si546  1  0.28868333  0.66666667  0.01973333  1.0
  Si  Si547  1  0.28868333  0.66666667  0.35306667  1.0
  Si  Si548  1  0.28868333  0.66666667  0.68640000  1.0
  Si  Si549  1  0.62201667  0.00000000  0.01973333  1.0
  Si  Si550  1  0.62201667  0.00000000  0.35306667  1.0
  Si  Si551  1  0.62201667  0.00000000  0.68640000  1.0
  Si  Si552  1  0.62201667  0.33333333  0.01973333  1.0
  Si  Si553  1  0.62201667  0.33333333  0.35306667  1.0
  Si  Si554  1  0.62201667  0.33333333  0.68640000  1.0
  Si  Si555  1  0.62201667  0.66666667  0.01973333  1.0
  Si  Si556  1  0.62201667  0.66666667  0.35306667  1.0
  Si  Si557  1  0.62201667  0.66666667  0.68640000  1.0
  Si  Si558  1  0.95535000  0.00000000  0.01973333  1.0
  Si  Si559  1  0.95535000  0.00000000  0.35306667  1.0
  Si  Si560  1  0.95535000  0.00000000  0.68640000  1.0
  Si  Si561  1  0.95535000  0.33333333  0.01973333  1.0
  Si  Si562  1  0.95535000  0.33333333  0.35306667  1.0
  Si  Si563  1  0.95535000  0.33333333  0.68640000  1.0
  Si  Si564  1  0.95535000  0.66666667  0.01973333  1.0
  Si  Si565  1  0.95535000  0.66666667  0.35306667  1.0
  Si  Si566  1  0.95535000  0.66666667  0.68640000  1.0
  Si  Si567  1  0.28868333  0.00000000  0.18640000  1.0
  Si  Si568  1  0.28868333  0.00000000  0.51973333  1.0
  Si  Si569  1  0.28868333  0.00000000  0.85306667  1.0
  Si  Si570  1  0.28868333  0.33333333  0.18640000  1.0
  Si  Si571  1  0.28868333  0.33333333  0.51973333  1.0
  Si  Si572  1  0.28868333  0.33333333  0.85306667  1.0
  Si  Si573  1  0.28868333  0.66666667  0.18640000  1.0
  Si  Si574  1  0.28868333  0.66666667  0.51973333  1.0
  Si  Si575  1  0.28868333  0.66666667  0.85306667  1.0
  Si  Si576  1  0.62201667  0.00000000  0.18640000  1.0
  Si  Si577  1  0.62201667  0.00000000  0.51973333  1.0
  Si  Si578  1  0.62201667  0.00000000  0.85306667  1.0
  Si  Si579  1  0.62201667  0.33333333  0.18640000  1.0
  Si  Si580  1  0.62201667  0.33333333  0.51973333  1.0
  Si  Si581  1  0.62201667  0.33333333  0.85306667  1.0
  Si  Si582  1  0.62201667  0.66666667  0.18640000  1.0
  Si  Si583  1  0.62201667  0.66666667  0.51973333  1.0
  Si  Si584  1  0.62201667  0.66666667  0.85306667  1.0
  Si  Si585  1  0.95535000  0.00000000  0.18640000  1.0
  Si  Si586  1  0.95535000  0.00000000  0.51973333  1.0
  Si  Si587  1  0.95535000  0.00000000  0.85306667  1.0
  Si  Si588  1  0.95535000  0.33333333  0.18640000  1.0
  Si  Si589  1  0.95535000  0.33333333  0.51973333  1.0
  Si  Si590  1  0.95535000  0.33333333  0.85306667  1.0
  Si  Si591  1  0.95535000  0.66666667  0.18640000  1.0
  Si  Si592  1  0.95535000  0.66666667  0.51973333  1.0
  Si  Si593  1  0.95535000  0.66666667  0.85306667  1.0
  Si  Si594  1  0.28868333  0.16666667  0.01973333  1.0
  Si  Si595  1  0.28868333  0.16666667  0.35306667  1.0
  Si  Si596  1  0.28868333  0.16666667  0.68640000  1.0
  Si  Si597  1  0.28868333  0.50000000  0.01973333  1.0
  Si  Si598  1  0.28868333  0.50000000  0.35306667  1.0
  Si  Si599  1  0.28868333  0.50000000  0.68640000  1.0
  Si  Si600  1  0.28868333  0.83333333  0.01973333  1.0
  Si  Si601  1  0.28868333  0.83333333  0.35306667  1.0
  Si  Si602  1  0.28868333  0.83333333  0.68640000  1.0
  Si  Si603  1  0.62201667  0.16666667  0.01973333  1.0
  Si  Si604  1  0.62201667  0.16666667  0.35306667  1.0
  Si  Si605  1  0.62201667  0.16666667  0.68640000  1.0
  Si  Si606  1  0.62201667  0.50000000  0.01973333  1.0
  Si  Si607  1  0.62201667  0.50000000  0.35306667  1.0
  Si  Si608  1  0.62201667  0.50000000  0.68640000  1.0
  Si  Si609  1  0.62201667  0.83333333  0.01973333  1.0
  Si  Si610  1  0.62201667  0.83333333  0.35306667  1.0
  Si  Si611  1  0.62201667  0.83333333  0.68640000  1.0
  Si  Si612  1  0.95535000  0.16666667  0.01973333  1.0
  Si  Si613  1  0.95535000  0.16666667  0.35306667  1.0
  Si  Si614  1  0.95535000  0.16666667  0.68640000  1.0
  Si  Si615  1  0.95535000  0.50000000  0.01973333  1.0
  Si  Si616  1  0.95535000  0.50000000  0.35306667  1.0
  Si  Si617  1  0.95535000  0.50000000  0.68640000  1.0
  Si  Si618  1  0.95535000  0.83333333  0.01973333  1.0
  Si  Si619  1  0.95535000  0.83333333  0.35306667  1.0
  Si  Si620  1  0.95535000  0.83333333  0.68640000  1.0
  Si  Si621  1  0.28868333  0.16666667  0.18640000  1.0
  Si  Si622  1  0.28868333  0.16666667  0.51973333  1.0
  Si  Si623  1  0.28868333  0.16666667  0.85306667  1.0
  Si  Si624  1  0.28868333  0.50000000  0.18640000  1.0
  Si  Si625  1  0.28868333  0.50000000  0.51973333  1.0
  Si  Si626  1  0.28868333  0.50000000  0.85306667  1.0
  Si  Si627  1  0.28868333  0.83333333  0.18640000  1.0
  Si  Si628  1  0.28868333  0.83333333  0.51973333  1.0
  Si  Si629  1  0.28868333  0.83333333  0.85306667  1.0
  Si  Si630  1  0.62201667  0.16666667  0.18640000  1.0
  Si  Si631  1  0.62201667  0.16666667  0.51973333  1.0
  Si  Si632  1  0.62201667  0.16666667  0.85306667  1.0
  Si  Si633  1  0.62201667  0.50000000  0.18640000  1.0
  Si  Si634  1  0.62201667  0.50000000  0.51973333  1.0
  Si  Si635  1  0.62201667  0.50000000  0.85306667  1.0
  Si  Si636  1  0.62201667  0.83333333  0.18640000  1.0
  Si  Si637  1  0.62201667  0.83333333  0.51973333  1.0
  Si  Si638  1  0.62201667  0.83333333  0.85306667  1.0
  Si  Si639  1  0.95535000  0.16666667  0.18640000  1.0
  Si  Si640  1  0.95535000  0.16666667  0.51973333  1.0
  Si  Si641  1  0.95535000  0.16666667  0.85306667  1.0
  Si  Si642  1  0.95535000  0.50000000  0.18640000  1.0
  Si  Si643  1  0.95535000  0.50000000  0.51973333  1.0
  Si  Si644  1  0.95535000  0.50000000  0.85306667  1.0
  Si  Si645  1  0.95535000  0.83333333  0.18640000  1.0
  Si  Si646  1  0.95535000  0.83333333  0.51973333  1.0
  Si  Si647  1  0.95535000  0.83333333  0.85306667  1.0
  Si  Si648  1  1.00000000  0.12201667  0.14693333  1.0
  Si  Si649  1  1.00000000  0.12201667  0.48026667  1.0
  Si  Si650  1  1.00000000  0.12201667  0.81360000  1.0
  Si  Si651  1  1.00000000  0.45535000  0.14693333  1.0
  Si  Si652  1  1.00000000  0.45535000  0.48026667  1.0
  Si  Si653  1  1.00000000  0.45535000  0.81360000  1.0
  Si  Si654  1  1.00000000  0.78868333  0.14693333  1.0
  Si  Si655  1  1.00000000  0.78868333  0.48026667  1.0
  Si  Si656  1  1.00000000  0.78868333  0.81360000  1.0
  Si  Si657  1  0.33333333  0.12201667  0.14693333  1.0
  Si  Si658  1  0.33333333  0.12201667  0.48026667  1.0
  Si  Si659  1  0.33333333  0.12201667  0.81360000  1.0
  Si  Si660  1  0.33333333  0.45535000  0.14693333  1.0
  Si  Si661  1  0.33333333  0.45535000  0.48026667  1.0
  Si  Si662  1  0.33333333  0.45535000  0.81360000  1.0
  Si  Si663  1  0.33333333  0.78868333  0.14693333  1.0
  Si  Si664  1  0.33333333  0.78868333  0.48026667  1.0
  Si  Si665  1  0.33333333  0.78868333  0.81360000  1.0
  Si  Si666  1  0.66666667  0.12201667  0.14693333  1.0
  Si  Si667  1  0.66666667  0.12201667  0.48026667  1.0
  Si  Si668  1  0.66666667  0.12201667  0.81360000  1.0
  Si  Si669  1  0.66666667  0.45535000  0.14693333  1.0
  Si  Si670  1  0.66666667  0.45535000  0.48026667  1.0
  Si  Si671  1  0.66666667  0.45535000  0.81360000  1.0
  Si  Si672  1  0.66666667  0.78868333  0.14693333  1.0
  Si  Si673  1  0.66666667  0.78868333  0.48026667  1.0
  Si  Si674  1  0.66666667  0.78868333  0.81360000  1.0
  Si  Si675  1  1.00000000  0.12201667  0.31360000  1.0
  Si  Si676  1  1.00000000  0.12201667  0.64693333  1.0
  Si  Si677  1  1.00000000  0.12201667  0.98026667  1.0
  Si  Si678  1  1.00000000  0.45535000  0.31360000  1.0
  Si  Si679  1  1.00000000  0.45535000  0.64693333  1.0
  Si  Si680  1  1.00000000  0.45535000  0.98026667  1.0
  Si  Si681  1  1.00000000  0.78868333  0.31360000  1.0
  Si  Si682  1  1.00000000  0.78868333  0.64693333  1.0
  Si  Si683  1  1.00000000  0.78868333  0.98026667  1.0
  Si  Si684  1  0.33333333  0.12201667  0.31360000  1.0
  Si  Si685  1  0.33333333  0.12201667  0.64693333  1.0
  Si  Si686  1  0.33333333  0.12201667  0.98026667  1.0
  Si  Si687  1  0.33333333  0.45535000  0.31360000  1.0
  Si  Si688  1  0.33333333  0.45535000  0.64693333  1.0
  Si  Si689  1  0.33333333  0.45535000  0.98026667  1.0
  Si  Si690  1  0.33333333  0.78868333  0.31360000  1.0
  Si  Si691  1  0.33333333  0.78868333  0.64693333  1.0
  Si  Si692  1  0.33333333  0.78868333  0.98026667  1.0
  Si  Si693  1  0.66666667  0.12201667  0.31360000  1.0
  Si  Si694  1  0.66666667  0.12201667  0.64693333  1.0
  Si  Si695  1  0.66666667  0.12201667  0.98026667  1.0
  Si  Si696  1  0.66666667  0.45535000  0.31360000  1.0
  Si  Si697  1  0.66666667  0.45535000  0.64693333  1.0
  Si  Si698  1  0.66666667  0.45535000  0.98026667  1.0
  Si  Si699  1  0.66666667  0.78868333  0.31360000  1.0
  Si  Si700  1  0.66666667  0.78868333  0.64693333  1.0
  Si  Si701  1  0.66666667  0.78868333  0.98026667  1.0
  Si  Si702  1  1.00000000  0.28868333  0.14693333  1.0
  Si  Si703  1  1.00000000  0.28868333  0.48026667  1.0
  Si  Si704  1  1.00000000  0.28868333  0.81360000  1.0
  Si  Si705  1  0.00000000  0.62201667  0.14693333  1.0
  Si  Si706  1  0.00000000  0.62201667  0.48026667  1.0
  Si  Si707  1  0.00000000  0.62201667  0.81360000  1.0
  Si  Si708  1  1.00000000  0.95535000  0.14693333  1.0
  Si  Si709  1  1.00000000  0.95535000  0.48026667  1.0
  Si  Si710  1  1.00000000  0.95535000  0.81360000  1.0
  Si  Si711  1  0.33333333  0.28868333  0.14693333  1.0
  Si  Si712  1  0.33333333  0.28868333  0.48026667  1.0
  Si  Si713  1  0.33333333  0.28868333  0.81360000  1.0
  Si  Si714  1  0.33333333  0.62201667  0.14693333  1.0
  Si  Si715  1  0.33333333  0.62201667  0.48026667  1.0
  Si  Si716  1  0.33333333  0.62201667  0.81360000  1.0
  Si  Si717  1  0.33333333  0.95535000  0.14693333  1.0
  Si  Si718  1  0.33333333  0.95535000  0.48026667  1.0
  Si  Si719  1  0.33333333  0.95535000  0.81360000  1.0
  Si  Si720  1  0.66666667  0.28868333  0.14693333  1.0
  Si  Si721  1  0.66666667  0.28868333  0.48026667  1.0
  Si  Si722  1  0.66666667  0.28868333  0.81360000  1.0
  Si  Si723  1  0.66666667  0.62201667  0.14693333  1.0
  Si  Si724  1  0.66666667  0.62201667  0.48026667  1.0
  Si  Si725  1  0.66666667  0.62201667  0.81360000  1.0
  Si  Si726  1  0.66666667  0.95535000  0.14693333  1.0
  Si  Si727  1  0.66666667  0.95535000  0.48026667  1.0
  Si  Si728  1  0.66666667  0.95535000  0.81360000  1.0
  Si  Si729  1  1.00000000  0.28868333  0.31360000  1.0
  Si  Si730  1  1.00000000  0.28868333  0.64693333  1.0
  Si  Si731  1  1.00000000  0.28868333  0.98026667  1.0
  Si  Si732  1  0.00000000  0.62201667  0.31360000  1.0
  Si  Si733  1  0.00000000  0.62201667  0.64693333  1.0
  Si  Si734  1  0.00000000  0.62201667  0.98026667  1.0
  Si  Si735  1  1.00000000  0.95535000  0.31360000  1.0
  Si  Si736  1  1.00000000  0.95535000  0.64693333  1.0
  Si  Si737  1  1.00000000  0.95535000  0.98026667  1.0
  Si  Si738  1  0.33333333  0.28868333  0.31360000  1.0
  Si  Si739  1  0.33333333  0.28868333  0.64693333  1.0
  Si  Si740  1  0.33333333  0.28868333  0.98026667  1.0
  Si  Si741  1  0.33333333  0.62201667  0.31360000  1.0
  Si  Si742  1  0.33333333  0.62201667  0.64693333  1.0
  Si  Si743  1  0.33333333  0.62201667  0.98026667  1.0
  Si  Si744  1  0.33333333  0.95535000  0.31360000  1.0
  Si  Si745  1  0.33333333  0.95535000  0.64693333  1.0
  Si  Si746  1  0.33333333  0.95535000  0.98026667  1.0
  Si  Si747  1  0.66666667  0.28868333  0.31360000  1.0
  Si  Si748  1  0.66666667  0.28868333  0.64693333  1.0
  Si  Si749  1  0.66666667  0.28868333  0.98026667  1.0
  Si  Si750  1  0.66666667  0.62201667  0.31360000  1.0
  Si  Si751  1  0.66666667  0.62201667  0.64693333  1.0
  Si  Si752  1  0.66666667  0.62201667  0.98026667  1.0
  Si  Si753  1  0.66666667  0.95535000  0.31360000  1.0
  Si  Si754  1  0.66666667  0.95535000  0.64693333  1.0
  Si  Si755  1  0.66666667  0.95535000  0.98026667  1.0
  Si  Si756  1  0.16666667  0.12201667  0.14693333  1.0
  Si  Si757  1  0.16666667  0.12201667  0.48026667  1.0
  Si  Si758  1  0.16666667  0.12201667  0.81360000  1.0
  Si  Si759  1  0.16666667  0.45535000  0.14693333  1.0
  Si  Si760  1  0.16666667  0.45535000  0.48026667  1.0
  Si  Si761  1  0.16666667  0.45535000  0.81360000  1.0
  Si  Si762  1  0.16666667  0.78868333  0.14693333  1.0
  Si  Si763  1  0.16666667  0.78868333  0.48026667  1.0
  Si  Si764  1  0.16666667  0.78868333  0.81360000  1.0
  Si  Si765  1  0.50000000  0.12201667  0.14693333  1.0
  Si  Si766  1  0.50000000  0.12201667  0.48026667  1.0
  Si  Si767  1  0.50000000  0.12201667  0.81360000  1.0
  Si  Si768  1  0.50000000  0.45535000  0.14693333  1.0
  Si  Si769  1  0.50000000  0.45535000  0.48026667  1.0
  Si  Si770  1  0.50000000  0.45535000  0.81360000  1.0
  Si  Si771  1  0.50000000  0.78868333  0.14693333  1.0
  Si  Si772  1  0.50000000  0.78868333  0.48026667  1.0
  Si  Si773  1  0.50000000  0.78868333  0.81360000  1.0
  Si  Si774  1  0.83333333  0.12201667  0.14693333  1.0
  Si  Si775  1  0.83333333  0.12201667  0.48026667  1.0
  Si  Si776  1  0.83333333  0.12201667  0.81360000  1.0
  Si  Si777  1  0.83333333  0.45535000  0.14693333  1.0
  Si  Si778  1  0.83333333  0.45535000  0.48026667  1.0
  Si  Si779  1  0.83333333  0.45535000  0.81360000  1.0
  Si  Si780  1  0.83333333  0.78868333  0.14693333  1.0
  Si  Si781  1  0.83333333  0.78868333  0.48026667  1.0
  Si  Si782  1  0.83333333  0.78868333  0.81360000  1.0
  Si  Si783  1  0.16666667  0.12201667  0.31360000  1.0
  Si  Si784  1  0.16666667  0.12201667  0.64693333  1.0
  Si  Si785  1  0.16666667  0.12201667  0.98026667  1.0
  Si  Si786  1  0.16666667  0.45535000  0.31360000  1.0
  Si  Si787  1  0.16666667  0.45535000  0.64693333  1.0
  Si  Si788  1  0.16666667  0.45535000  0.98026667  1.0
  Si  Si789  1  0.16666667  0.78868333  0.31360000  1.0
  Si  Si790  1  0.16666667  0.78868333  0.64693333  1.0
  Si  Si791  1  0.16666667  0.78868333  0.98026667  1.0
  Si  Si792  1  0.50000000  0.12201667  0.31360000  1.0
  Si  Si793  1  0.50000000  0.12201667  0.64693333  1.0
  Si  Si794  1  0.50000000  0.12201667  0.98026667  1.0
  Si  Si795  1  0.50000000  0.45535000  0.31360000  1.0
  Si  Si796  1  0.50000000  0.45535000  0.64693333  1.0
  Si  Si797  1  0.50000000  0.45535000  0.98026667  1.0
  Si  Si798  1  0.50000000  0.78868333  0.31360000  1.0
  Si  Si799  1  0.50000000  0.78868333  0.64693333  1.0
  Si  Si800  1  0.50000000  0.78868333  0.98026667  1.0
  Si  Si801  1  0.83333333  0.12201667  0.31360000  1.0
  Si  Si802  1  0.83333333  0.12201667  0.64693333  1.0
  Si  Si803  1  0.83333333  0.12201667  0.98026667  1.0
  Si  Si804  1  0.83333333  0.45535000  0.31360000  1.0
  Si  Si805  1  0.83333333  0.45535000  0.64693333  1.0
  Si  Si806  1  0.83333333  0.45535000  0.98026667  1.0
  Si  Si807  1  0.83333333  0.78868333  0.31360000  1.0
  Si  Si808  1  0.83333333  0.78868333  0.64693333  1.0
  Si  Si809  1  0.83333333  0.78868333  0.98026667  1.0
  Si  Si810  1  0.16666667  0.28868333  0.14693333  1.0
  Si  Si811  1  0.16666667  0.28868333  0.48026667  1.0
  Si  Si812  1  0.16666667  0.28868333  0.81360000  1.0
  Si  Si813  1  0.16666667  0.62201667  0.14693333  1.0
  Si  Si814  1  0.16666667  0.62201667  0.48026667  1.0
  Si  Si815  1  0.16666667  0.62201667  0.81360000  1.0
  Si  Si816  1  0.16666667  0.95535000  0.14693333  1.0
  Si  Si817  1  0.16666667  0.95535000  0.48026667  1.0
  Si  Si818  1  0.16666667  0.95535000  0.81360000  1.0
  Si  Si819  1  0.50000000  0.28868333  0.14693333  1.0
  Si  Si820  1  0.50000000  0.28868333  0.48026667  1.0
  Si  Si821  1  0.50000000  0.28868333  0.81360000  1.0
  Si  Si822  1  0.50000000  0.62201667  0.14693333  1.0
  Si  Si823  1  0.50000000  0.62201667  0.48026667  1.0
  Si  Si824  1  0.50000000  0.62201667  0.81360000  1.0
  Si  Si825  1  0.50000000  0.95535000  0.14693333  1.0
  Si  Si826  1  0.50000000  0.95535000  0.48026667  1.0
  Si  Si827  1  0.50000000  0.95535000  0.81360000  1.0
  Si  Si828  1  0.83333333  0.28868333  0.14693333  1.0
  Si  Si829  1  0.83333333  0.28868333  0.48026667  1.0
  Si  Si830  1  0.83333333  0.28868333  0.81360000  1.0
  Si  Si831  1  0.83333333  0.62201667  0.14693333  1.0
  Si  Si832  1  0.83333333  0.62201667  0.48026667  1.0
  Si  Si833  1  0.83333333  0.62201667  0.81360000  1.0
  Si  Si834  1  0.83333333  0.95535000  0.14693333  1.0
  Si  Si835  1  0.83333333  0.95535000  0.48026667  1.0
  Si  Si836  1  0.83333333  0.95535000  0.81360000  1.0
  Si  Si837  1  0.16666667  0.28868333  0.31360000  1.0
  Si  Si838  1  0.16666667  0.28868333  0.64693333  1.0
  Si  Si839  1  0.16666667  0.28868333  0.98026667  1.0
  Si  Si840  1  0.16666667  0.62201667  0.31360000  1.0
  Si  Si841  1  0.16666667  0.62201667  0.64693333  1.0
  Si  Si842  1  0.16666667  0.62201667  0.98026667  1.0
  Si  Si843  1  0.16666667  0.95535000  0.31360000  1.0
  Si  Si844  1  0.16666667  0.95535000  0.64693333  1.0
  Si  Si845  1  0.16666667  0.95535000  0.98026667  1.0
  Si  Si846  1  0.50000000  0.28868333  0.31360000  1.0
  Si  Si847  1  0.50000000  0.28868333  0.64693333  1.0
  Si  Si848  1  0.50000000  0.28868333  0.98026667  1.0
  Si  Si849  1  0.50000000  0.62201667  0.31360000  1.0
  Si  Si850  1  0.50000000  0.62201667  0.64693333  1.0
  Si  Si851  1  0.50000000  0.62201667  0.98026667  1.0
  Si  Si852  1  0.50000000  0.95535000  0.31360000  1.0
  Si  Si853  1  0.50000000  0.95535000  0.64693333  1.0
  Si  Si854  1  0.50000000  0.95535000  0.98026667  1.0
  Si  Si855  1  0.83333333  0.28868333  0.31360000  1.0
  Si  Si856  1  0.83333333  0.28868333  0.64693333  1.0
  Si  Si857  1  0.83333333  0.28868333  0.98026667  1.0
  Si  Si858  1  0.83333333  0.62201667  0.31360000  1.0
  Si  Si859  1  0.83333333  0.62201667  0.64693333  1.0
  Si  Si860  1  0.83333333  0.62201667  0.98026667  1.0
  Si  Si861  1  0.83333333  0.95535000  0.31360000  1.0
  Si  Si862  1  0.83333333  0.95535000  0.64693333  1.0
  Si  Si863  1  0.83333333  0.95535000  0.98026667  1.0
  Si  Si864  1  0.00000000  0.00000000  0.08333333  1.0
  Si  Si865  1  0.00000000  0.00000000  0.41666667  1.0
  Si  Si866  1  0.00000000  0.00000000  0.75000000  1.0
  Si  Si867  1  1.00000000  0.33333333  0.08333333  1.0
  Si  Si868  1  1.00000000  0.33333333  0.41666667  1.0
  Si  Si869  1  1.00000000  0.33333333  0.75000000  1.0
  Si  Si870  1  1.00000000  0.66666667  0.08333333  1.0
  Si  Si871  1  1.00000000  0.66666667  0.41666667  1.0
  Si  Si872  1  1.00000000  0.66666667  0.75000000  1.0
  Si  Si873  1  0.33333333  0.00000000  0.08333333  1.0
  Si  Si874  1  0.33333333  0.00000000  0.41666667  1.0
  Si  Si875  1  0.33333333  0.00000000  0.75000000  1.0
  Si  Si876  1  0.33333333  0.33333333  0.08333333  1.0
  Si  Si877  1  0.33333333  0.33333333  0.41666667  1.0
  Si  Si878  1  0.33333333  0.33333333  0.75000000  1.0
  Si  Si879  1  0.33333333  0.66666667  0.08333333  1.0
  Si  Si880  1  0.33333333  0.66666667  0.41666667  1.0
  Si  Si881  1  0.33333333  0.66666667  0.75000000  1.0
  Si  Si882  1  0.66666667  0.00000000  0.08333333  1.0
  Si  Si883  1  0.66666667  0.00000000  0.41666667  1.0
  Si  Si884  1  0.66666667  0.00000000  0.75000000  1.0
  Si  Si885  1  0.66666667  0.33333333  0.08333333  1.0
  Si  Si886  1  0.66666667  0.33333333  0.41666667  1.0
  Si  Si887  1  0.66666667  0.33333333  0.75000000  1.0
  Si  Si888  1  0.66666667  0.66666667  0.08333333  1.0
  Si  Si889  1  0.66666667  0.66666667  0.41666667  1.0
  Si  Si890  1  0.66666667  0.66666667  0.75000000  1.0
  Si  Si891  1  0.00000000  0.00000000  0.25000000  1.0
  Si  Si892  1  0.00000000  0.00000000  0.58333333  1.0
  Si  Si893  1  0.00000000  0.00000000  0.91666667  1.0
  Si  Si894  1  1.00000000  0.33333333  0.25000000  1.0
  Si  Si895  1  1.00000000  0.33333333  0.58333333  1.0
  Si  Si896  1  1.00000000  0.33333333  0.91666667  1.0
  Si  Si897  1  1.00000000  0.66666667  0.25000000  1.0
  Si  Si898  1  1.00000000  0.66666667  0.58333333  1.0
  Si  Si899  1  1.00000000  0.66666667  0.91666667  1.0
  Si  Si900  1  0.33333333  0.00000000  0.25000000  1.0
  Si  Si901  1  0.33333333  0.00000000  0.58333333  1.0
  Si  Si902  1  0.33333333  0.00000000  0.91666667  1.0
  Si  Si903  1  0.33333333  0.33333333  0.25000000  1.0
  Si  Si904  1  0.33333333  0.33333333  0.58333333  1.0
  Si  Si905  1  0.33333333  0.33333333  0.91666667  1.0
  Si  Si906  1  0.33333333  0.66666667  0.25000000  1.0
  Si  Si907  1  0.33333333  0.66666667  0.58333333  1.0
  Si  Si908  1  0.33333333  0.66666667  0.91666667  1.0
  Si  Si909  1  0.66666667  0.00000000  0.25000000  1.0
  Si  Si910  1  0.66666667  0.00000000  0.58333333  1.0
  Si  Si911  1  0.66666667  0.00000000  0.91666667  1.0
  Si  Si912  1  0.66666667  0.33333333  0.25000000  1.0
  Si  Si913  1  0.66666667  0.33333333  0.58333333  1.0
  Si  Si914  1  0.66666667  0.33333333  0.91666667  1.0
  Si  Si915  1  0.66666667  0.66666667  0.25000000  1.0
  Si  Si916  1  0.66666667  0.66666667  0.58333333  1.0
  Si  Si917  1  0.66666667  0.66666667  0.91666667  1.0
  Si  Si918  1  1.00000000  0.16666667  0.08333333  1.0
  Si  Si919  1  1.00000000  0.16666667  0.41666667  1.0
  Si  Si920  1  1.00000000  0.16666667  0.75000000  1.0
  Si  Si921  1  0.00000000  0.50000000  0.08333333  1.0
  Si  Si922  1  0.00000000  0.50000000  0.41666667  1.0
  Si  Si923  1  0.00000000  0.50000000  0.75000000  1.0
  Si  Si924  1  1.00000000  0.83333333  0.08333333  1.0
  Si  Si925  1  1.00000000  0.83333333  0.41666667  1.0
  Si  Si926  1  1.00000000  0.83333333  0.75000000  1.0
  Si  Si927  1  0.33333333  0.16666667  0.08333333  1.0
  Si  Si928  1  0.33333333  0.16666667  0.41666667  1.0
  Si  Si929  1  0.33333333  0.16666667  0.75000000  1.0
  Si  Si930  1  0.33333333  0.50000000  0.08333333  1.0
  Si  Si931  1  0.33333333  0.50000000  0.41666667  1.0
  Si  Si932  1  0.33333333  0.50000000  0.75000000  1.0
  Si  Si933  1  0.33333333  0.83333333  0.08333333  1.0
  Si  Si934  1  0.33333333  0.83333333  0.41666667  1.0
  Si  Si935  1  0.33333333  0.83333333  0.75000000  1.0
  Si  Si936  1  0.66666667  0.16666667  0.08333333  1.0
  Si  Si937  1  0.66666667  0.16666667  0.41666667  1.0
  Si  Si938  1  0.66666667  0.16666667  0.75000000  1.0
  Si  Si939  1  0.66666667  0.50000000  0.08333333  1.0
  Si  Si940  1  0.66666667  0.50000000  0.41666667  1.0
  Si  Si941  1  0.66666667  0.50000000  0.75000000  1.0
  Si  Si942  1  0.66666667  0.83333333  0.08333333  1.0
  Si  Si943  1  0.66666667  0.83333333  0.41666667  1.0
  Si  Si944  1  0.66666667  0.83333333  0.75000000  1.0
  Si  Si945  1  1.00000000  0.16666667  0.25000000  1.0
  Si  Si946  1  1.00000000  0.16666667  0.58333333  1.0
  Si  Si947  1  1.00000000  0.16666667  0.91666667  1.0
  Si  Si948  1  0.00000000  0.50000000  0.25000000  1.0
  Si  Si949  1  0.00000000  0.50000000  0.58333333  1.0
  Si  Si950  1  0.00000000  0.50000000  0.91666667  1.0
  Si  Si951  1  1.00000000  0.83333333  0.25000000  1.0
  Si  Si952  1  1.00000000  0.83333333  0.58333333  1.0
  Si  Si953  1  1.00000000  0.83333333  0.91666667  1.0
  Si  Si954  1  0.33333333  0.16666667  0.25000000  1.0
  Si  Si955  1  0.33333333  0.16666667  0.58333333  1.0
  Si  Si956  1  0.33333333  0.16666667  0.91666667  1.0
  Si  Si957  1  0.33333333  0.50000000  0.25000000  1.0
  Si  Si958  1  0.33333333  0.50000000  0.58333333  1.0
  Si  Si959  1  0.33333333  0.50000000  0.91666667  1.0
  Si  Si960  1  0.33333333  0.83333333  0.25000000  1.0
  Si  Si961  1  0.33333333  0.83333333  0.58333333  1.0
  Si  Si962  1  0.33333333  0.83333333  0.91666667  1.0
  Si  Si963  1  0.66666667  0.16666667  0.25000000  1.0
  Si  Si964  1  0.66666667  0.16666667  0.58333333  1.0
  Si  Si965  1  0.66666667  0.16666667  0.91666667  1.0
  Si  Si966  1  0.66666667  0.50000000  0.25000000  1.0
  Si  Si967  1  0.66666667  0.50000000  0.58333333  1.0
  Si  Si968  1  0.66666667  0.50000000  0.91666667  1.0
  Si  Si969  1  0.66666667  0.83333333  0.25000000  1.0
  Si  Si970  1  0.66666667  0.83333333  0.58333333  1.0
  Si  Si971  1  0.66666667  0.83333333  0.91666667  1.0
  Si  Si972  1  0.16666667  0.00000000  0.08333333  1.0
  Si  Si973  1  0.16666667  0.00000000  0.41666667  1.0
  Si  Si974  1  0.16666667  0.00000000  0.75000000  1.0
  Si  Si975  1  0.16666667  0.33333333  0.08333333  1.0
  Si  Si976  1  0.16666667  0.33333333  0.41666667  1.0
  Si  Si977  1  0.16666667  0.33333333  0.75000000  1.0
  Si  Si978  1  0.16666667  0.66666667  0.08333333  1.0
  Si  Si979  1  0.16666667  0.66666667  0.41666667  1.0
  Si  Si980  1  0.16666667  0.66666667  0.75000000  1.0
  Si  Si981  1  0.50000000  0.00000000  0.08333333  1.0
  Si  Si982  1  0.50000000  0.00000000  0.41666667  1.0
  Si  Si983  1  0.50000000  0.00000000  0.75000000  1.0
  Si  Si984  1  0.50000000  0.33333333  0.08333333  1.0
  Si  Si985  1  0.50000000  0.33333333  0.41666667  1.0
  Si  Si986  1  0.50000000  0.33333333  0.75000000  1.0
  Si  Si987  1  0.50000000  0.66666667  0.08333333  1.0
  Si  Si988  1  0.50000000  0.66666667  0.41666667  1.0
  Si  Si989  1  0.50000000  0.66666667  0.75000000  1.0
  Si  Si990  1  0.83333333  0.00000000  0.08333333  1.0
  Si  Si991  1  0.83333333  0.00000000  0.41666667  1.0
  Si  Si992  1  0.83333333  0.00000000  0.75000000  1.0
  Si  Si993  1  0.83333333  0.33333333  0.08333333  1.0
  Si  Si994  1  0.83333333  0.33333333  0.41666667  1.0
  Si  Si995  1  0.83333333  0.33333333  0.75000000  1.0
  Si  Si996  1  0.83333333  0.66666667  0.08333333  1.0
  Si  Si997  1  0.83333333  0.66666667  0.41666667  1.0
  Si  Si998  1  0.83333333  0.66666667  0.75000000  1.0
  Si  Si999  1  0.16666667  0.00000000  0.25000000  1.0
  Si  Si1000  1  0.16666667  0.00000000  0.58333333  1.0
  Si  Si1001  1  0.16666667  0.00000000  0.91666667  1.0
  Si  Si1002  1  0.16666667  0.33333333  0.25000000  1.0
  Si  Si1003  1  0.16666667  0.33333333  0.58333333  1.0
  Si  Si1004  1  0.16666667  0.33333333  0.91666667  1.0
  Si  Si1005  1  0.16666667  0.66666667  0.25000000  1.0
  Si  Si1006  1  0.16666667  0.66666667  0.58333333  1.0
  Si  Si1007  1  0.16666667  0.66666667  0.91666667  1.0
  Si  Si1008  1  0.50000000  0.00000000  0.25000000  1.0
  Si  Si1009  1  0.50000000  0.00000000  0.58333333  1.0
  Si  Si1010  1  0.50000000  0.00000000  0.91666667  1.0
  Si  Si1011  1  0.50000000  0.33333333  0.25000000  1.0
  Si  Si1012  1  0.50000000  0.33333333  0.58333333  1.0
  Si  Si1013  1  0.50000000  0.33333333  0.91666667  1.0
  Si  Si1014  1  0.50000000  0.66666667  0.25000000  1.0
  Si  Si1015  1  0.50000000  0.66666667  0.58333333  1.0
  Si  Si1016  1  0.50000000  0.66666667  0.91666667  1.0
  Si  Si1017  1  0.83333333  0.00000000  0.25000000  1.0
  Si  Si1018  1  0.83333333  0.00000000  0.58333333  1.0
  Si  Si1019  1  0.83333333  0.00000000  0.91666667  1.0
  Si  Si1020  1  0.83333333  0.33333333  0.25000000  1.0
  Si  Si1021  1  0.83333333  0.33333333  0.58333333  1.0
  Si  Si1022  1  0.83333333  0.33333333  0.91666667  1.0
  Si  Si1023  1  0.83333333  0.66666667  0.25000000  1.0
  Si  Si1024  1  0.83333333  0.66666667  0.58333333  1.0
  Si  Si1025  1  0.83333333  0.66666667  0.91666667  1.0
  Si  Si1026  1  0.16666667  0.16666667  0.08333333  1.0
  Si  Si1027  1  0.16666667  0.16666667  0.41666667  1.0
  Si  Si1028  1  0.16666667  0.16666667  0.75000000  1.0
  Si  Si1029  1  0.16666667  0.50000000  0.08333333  1.0
  Si  Si1030  1  0.16666667  0.50000000  0.41666667  1.0
  Si  Si1031  1  0.16666667  0.50000000  0.75000000  1.0
  Si  Si1032  1  0.16666667  0.83333333  0.08333333  1.0
  Si  Si1033  1  0.16666667  0.83333333  0.41666667  1.0
  Si  Si1034  1  0.16666667  0.83333333  0.75000000  1.0
  Si  Si1035  1  0.50000000  0.16666667  0.08333333  1.0
  Si  Si1036  1  0.50000000  0.16666667  0.41666667  1.0
  Si  Si1037  1  0.50000000  0.16666667  0.75000000  1.0
  Si  Si1038  1  0.50000000  0.50000000  0.08333333  1.0
  Si  Si1039  1  0.50000000  0.50000000  0.41666667  1.0
  Si  Si1040  1  0.50000000  0.50000000  0.75000000  1.0
  Si  Si1041  1  0.50000000  0.83333333  0.08333333  1.0
  Si  Si1042  1  0.50000000  0.83333333  0.41666667  1.0
  Si  Si1043  1  0.50000000  0.83333333  0.75000000  1.0
  Si  Si1044  1  0.83333333  0.16666667  0.08333333  1.0
  Si  Si1045  1  0.83333333  0.16666667  0.41666667  1.0
  Si  Si1046  1  0.83333333  0.16666667  0.75000000  1.0
  Si  Si1047  1  0.83333333  0.50000000  0.08333333  1.0
  Si  Si1048  1  0.83333333  0.50000000  0.41666667  1.0
  Si  Si1049  1  0.83333333  0.50000000  0.75000000  1.0
  Si  Si1050  1  0.83333333  0.83333333  0.08333333  1.0
  Si  Si1051  1  0.83333333  0.83333333  0.41666667  1.0
  Si  Si1052  1  0.83333333  0.83333333  0.75000000  1.0
  Si  Si1053  1  0.16666667  0.16666667  0.25000000  1.0
  Si  Si1054  1  0.16666667  0.16666667  0.58333333  1.0
  Si  Si1055  1  0.16666667  0.16666667  0.91666667  1.0
  Si  Si1056  1  0.16666667  0.50000000  0.25000000  1.0
  Si  Si1057  1  0.16666667  0.50000000  0.58333333  1.0
  Si  Si1058  1  0.16666667  0.50000000  0.91666667  1.0
  Si  Si1059  1  0.16666667  0.83333333  0.25000000  1.0
  Si  Si1060  1  0.16666667  0.83333333  0.58333333  1.0
  Si  Si1061  1  0.16666667  0.83333333  0.91666667  1.0
  Si  Si1062  1  0.50000000  0.16666667  0.25000000  1.0
  Si  Si1063  1  0.50000000  0.16666667  0.58333333  1.0
  Si  Si1064  1  0.50000000  0.16666667  0.91666667  1.0
  Si  Si1065  1  0.50000000  0.50000000  0.25000000  1.0
  Si  Si1066  1  0.50000000  0.50000000  0.58333333  1.0
  Si  Si1067  1  0.50000000  0.50000000  0.91666667  1.0
  Si  Si1068  1  0.50000000  0.83333333  0.25000000  1.0
  Si  Si1069  1  0.50000000  0.83333333  0.58333333  1.0
  Si  Si1070  1  0.50000000  0.83333333  0.91666667  1.0
  Si  Si1071  1  0.83333333  0.16666667  0.25000000  1.0
  Si  Si1072  1  0.83333333  0.16666667  0.58333333  1.0
  Si  Si1073  1  0.83333333  0.16666667  0.91666667  1.0
  Si  Si1074  1  0.83333333  0.50000000  0.25000000  1.0
  Si  Si1075  1  0.83333333  0.50000000  0.58333333  1.0
  Si  Si1076  1  0.83333333  0.50000000  0.91666667  1.0
  Si  Si1077  1  0.83333333  0.83333333  0.25000000  1.0
  Si  Si1078  1  0.83333333  0.83333333  0.58333333  1.0
  Si  Si1079  1  0.83333333  0.83333333  0.91666667  1.0
  O  O1080  1  0.03163333  0.00000000  0.05916667  1.0
  O  O1081  1  0.03163333  0.00000000  0.39250000  1.0
  O  O1082  1  0.03163333  0.00000000  0.72583333  1.0
  O  O1083  1  0.03163333  0.33333333  0.05916667  1.0
  O  O1084  1  0.03163333  0.33333333  0.39250000  1.0
  O  O1085  1  0.03163333  0.33333333  0.72583333  1.0
  O  O1086  1  0.03163333  0.66666667  0.05916667  1.0
  O  O1087  1  0.03163333  0.66666667  0.39250000  1.0
  O  O1088  1  0.03163333  0.66666667  0.72583333  1.0
  O  O1089  1  0.36496667  0.00000000  0.05916667  1.0
  O  O1090  1  0.36496667  0.00000000  0.39250000  1.0
  O  O1091  1  0.36496667  0.00000000  0.72583333  1.0
  O  O1092  1  0.36496667  0.33333333  0.05916667  1.0
  O  O1093  1  0.36496667  0.33333333  0.39250000  1.0
  O  O1094  1  0.36496667  0.33333333  0.72583333  1.0
  O  O1095  1  0.36496667  0.66666667  0.05916667  1.0
  O  O1096  1  0.36496667  0.66666667  0.39250000  1.0
  O  O1097  1  0.36496667  0.66666667  0.72583333  1.0
  O  O1098  1  0.69830000  0.00000000  0.05916667  1.0
  O  O1099  1  0.69830000  0.00000000  0.39250000  1.0
  O  O1100  1  0.69830000  0.00000000  0.72583333  1.0
  O  O1101  1  0.69830000  0.33333333  0.05916667  1.0
  O  O1102  1  0.69830000  0.33333333  0.39250000  1.0
  O  O1103  1  0.69830000  0.33333333  0.72583333  1.0
  O  O1104  1  0.69830000  0.66666667  0.05916667  1.0
  O  O1105  1  0.69830000  0.66666667  0.39250000  1.0
  O  O1106  1  0.69830000  0.66666667  0.72583333  1.0
  O  O1107  1  0.03163333  0.00000000  0.22583333  1.0
  O  O1108  1  0.03163333  0.00000000  0.55916667  1.0
  O  O1109  1  0.03163333  0.00000000  0.89250000  1.0
  O  O1110  1  0.03163333  0.33333333  0.22583333  1.0
  O  O1111  1  0.03163333  0.33333333  0.55916667  1.0
  O  O1112  1  0.03163333  0.33333333  0.89250000  1.0
  O  O1113  1  0.03163333  0.66666667  0.22583333  1.0
  O  O1114  1  0.03163333  0.66666667  0.55916667  1.0
  O  O1115  1  0.03163333  0.66666667  0.89250000  1.0
  O  O1116  1  0.36496667  0.00000000  0.22583333  1.0
  O  O1117  1  0.36496667  0.00000000  0.55916667  1.0
  O  O1118  1  0.36496667  0.00000000  0.89250000  1.0
  O  O1119  1  0.36496667  0.33333333  0.22583333  1.0
  O  O1120  1  0.36496667  0.33333333  0.55916667  1.0
  O  O1121  1  0.36496667  0.33333333  0.89250000  1.0
  O  O1122  1  0.36496667  0.66666667  0.22583333  1.0
  O  O1123  1  0.36496667  0.66666667  0.55916667  1.0
  O  O1124  1  0.36496667  0.66666667  0.89250000  1.0
  O  O1125  1  0.69830000  0.00000000  0.22583333  1.0
  O  O1126  1  0.69830000  0.00000000  0.55916667  1.0
  O  O1127  1  0.69830000  0.00000000  0.89250000  1.0
  O  O1128  1  0.69830000  0.33333333  0.22583333  1.0
  O  O1129  1  0.69830000  0.33333333  0.55916667  1.0
  O  O1130  1  0.69830000  0.33333333  0.89250000  1.0
  O  O1131  1  0.69830000  0.66666667  0.22583333  1.0
  O  O1132  1  0.69830000  0.66666667  0.55916667  1.0
  O  O1133  1  0.69830000  0.66666667  0.89250000  1.0
  O  O1134  1  0.03163333  0.16666667  0.05916667  1.0
  O  O1135  1  0.03163333  0.16666667  0.39250000  1.0
  O  O1136  1  0.03163333  0.16666667  0.72583333  1.0
  O  O1137  1  0.03163333  0.50000000  0.05916667  1.0
  O  O1138  1  0.03163333  0.50000000  0.39250000  1.0
  O  O1139  1  0.03163333  0.50000000  0.72583333  1.0
  O  O1140  1  0.03163333  0.83333333  0.05916667  1.0
  O  O1141  1  0.03163333  0.83333333  0.39250000  1.0
  O  O1142  1  0.03163333  0.83333333  0.72583333  1.0
  O  O1143  1  0.36496667  0.16666667  0.05916667  1.0
  O  O1144  1  0.36496667  0.16666667  0.39250000  1.0
  O  O1145  1  0.36496667  0.16666667  0.72583333  1.0
  O  O1146  1  0.36496667  0.50000000  0.05916667  1.0
  O  O1147  1  0.36496667  0.50000000  0.39250000  1.0
  O  O1148  1  0.36496667  0.50000000  0.72583333  1.0
  O  O1149  1  0.36496667  0.83333333  0.05916667  1.0
  O  O1150  1  0.36496667  0.83333333  0.39250000  1.0
  O  O1151  1  0.36496667  0.83333333  0.72583333  1.0
  O  O1152  1  0.69830000  0.16666667  0.05916667  1.0
  O  O1153  1  0.69830000  0.16666667  0.39250000  1.0
  O  O1154  1  0.69830000  0.16666667  0.72583333  1.0
  O  O1155  1  0.69830000  0.50000000  0.05916667  1.0
  O  O1156  1  0.69830000  0.50000000  0.39250000  1.0
  O  O1157  1  0.69830000  0.50000000  0.72583333  1.0
  O  O1158  1  0.69830000  0.83333333  0.05916667  1.0
  O  O1159  1  0.69830000  0.83333333  0.39250000  1.0
  O  O1160  1  0.69830000  0.83333333  0.72583333  1.0
  O  O1161  1  0.03163333  0.16666667  0.22583333  1.0
  O  O1162  1  0.03163333  0.16666667  0.55916667  1.0
  O  O1163  1  0.03163333  0.16666667  0.89250000  1.0
  O  O1164  1  0.03163333  0.50000000  0.22583333  1.0
  O  O1165  1  0.03163333  0.50000000  0.55916667  1.0
  O  O1166  1  0.03163333  0.50000000  0.89250000  1.0
  O  O1167  1  0.03163333  0.83333333  0.22583333  1.0
  O  O1168  1  0.03163333  0.83333333  0.55916667  1.0
  O  O1169  1  0.03163333  0.83333333  0.89250000  1.0
  O  O1170  1  0.36496667  0.16666667  0.22583333  1.0
  O  O1171  1  0.36496667  0.16666667  0.55916667  1.0
  O  O1172  1  0.36496667  0.16666667  0.89250000  1.0
  O  O1173  1  0.36496667  0.50000000  0.22583333  1.0
  O  O1174  1  0.36496667  0.50000000  0.55916667  1.0
  O  O1175  1  0.36496667  0.50000000  0.89250000  1.0
  O  O1176  1  0.36496667  0.83333333  0.22583333  1.0
  O  O1177  1  0.36496667  0.83333333  0.55916667  1.0
  O  O1178  1  0.36496667  0.83333333  0.89250000  1.0
  O  O1179  1  0.69830000  0.16666667  0.22583333  1.0
  O  O1180  1  0.69830000  0.16666667  0.55916667  1.0
  O  O1181  1  0.69830000  0.16666667  0.89250000  1.0
  O  O1182  1  0.69830000  0.50000000  0.22583333  1.0
  O  O1183  1  0.69830000  0.50000000  0.55916667  1.0
  O  O1184  1  0.69830000  0.50000000  0.89250000  1.0
  O  O1185  1  0.69830000  0.83333333  0.22583333  1.0
  O  O1186  1  0.69830000  0.83333333  0.55916667  1.0
  O  O1187  1  0.69830000  0.83333333  0.89250000  1.0
  O  O1188  1  0.19830000  0.00000000  0.05916667  1.0
  O  O1189  1  0.19830000  0.00000000  0.39250000  1.0
  O  O1190  1  0.19830000  0.00000000  0.72583333  1.0
  O  O1191  1  0.19830000  0.33333333  0.05916667  1.0
  O  O1192  1  0.19830000  0.33333333  0.39250000  1.0
  O  O1193  1  0.19830000  0.33333333  0.72583333  1.0
  O  O1194  1  0.19830000  0.66666667  0.05916667  1.0
  O  O1195  1  0.19830000  0.66666667  0.39250000  1.0
  O  O1196  1  0.19830000  0.66666667  0.72583333  1.0
  O  O1197  1  0.53163333  0.00000000  0.05916667  1.0
  O  O1198  1  0.53163333  0.00000000  0.39250000  1.0
  O  O1199  1  0.53163333  0.00000000  0.72583333  1.0
  O  O1200  1  0.53163333  0.33333333  0.05916667  1.0
  O  O1201  1  0.53163333  0.33333333  0.39250000  1.0
  O  O1202  1  0.53163333  0.33333333  0.72583333  1.0
  O  O1203  1  0.53163333  0.66666667  0.05916667  1.0
  O  O1204  1  0.53163333  0.66666667  0.39250000  1.0
  O  O1205  1  0.53163333  0.66666667  0.72583333  1.0
  O  O1206  1  0.86496667  0.00000000  0.05916667  1.0
  O  O1207  1  0.86496667  0.00000000  0.39250000  1.0
  O  O1208  1  0.86496667  0.00000000  0.72583333  1.0
  O  O1209  1  0.86496667  0.33333333  0.05916667  1.0
  O  O1210  1  0.86496667  0.33333333  0.39250000  1.0
  O  O1211  1  0.86496667  0.33333333  0.72583333  1.0
  O  O1212  1  0.86496667  0.66666667  0.05916667  1.0
  O  O1213  1  0.86496667  0.66666667  0.39250000  1.0
  O  O1214  1  0.86496667  0.66666667  0.72583333  1.0
  O  O1215  1  0.19830000  0.00000000  0.22583333  1.0
  O  O1216  1  0.19830000  0.00000000  0.55916667  1.0
  O  O1217  1  0.19830000  0.00000000  0.89250000  1.0
  O  O1218  1  0.19830000  0.33333333  0.22583333  1.0
  O  O1219  1  0.19830000  0.33333333  0.55916667  1.0
  O  O1220  1  0.19830000  0.33333333  0.89250000  1.0
  O  O1221  1  0.19830000  0.66666667  0.22583333  1.0
  O  O1222  1  0.19830000  0.66666667  0.55916667  1.0
  O  O1223  1  0.19830000  0.66666667  0.89250000  1.0
  O  O1224  1  0.53163333  0.00000000  0.22583333  1.0
  O  O1225  1  0.53163333  0.00000000  0.55916667  1.0
  O  O1226  1  0.53163333  0.00000000  0.89250000  1.0
  O  O1227  1  0.53163333  0.33333333  0.22583333  1.0
  O  O1228  1  0.53163333  0.33333333  0.55916667  1.0
  O  O1229  1  0.53163333  0.33333333  0.89250000  1.0
  O  O1230  1  0.53163333  0.66666667  0.22583333  1.0
  O  O1231  1  0.53163333  0.66666667  0.55916667  1.0
  O  O1232  1  0.53163333  0.66666667  0.89250000  1.0
  O  O1233  1  0.86496667  0.00000000  0.22583333  1.0
  O  O1234  1  0.86496667  0.00000000  0.55916667  1.0
  O  O1235  1  0.86496667  0.00000000  0.89250000  1.0
  O  O1236  1  0.86496667  0.33333333  0.22583333  1.0
  O  O1237  1  0.86496667  0.33333333  0.55916667  1.0
  O  O1238  1  0.86496667  0.33333333  0.89250000  1.0
  O  O1239  1  0.86496667  0.66666667  0.22583333  1.0
  O  O1240  1  0.86496667  0.66666667  0.55916667  1.0
  O  O1241  1  0.86496667  0.66666667  0.89250000  1.0
  O  O1242  1  0.19830000  0.16666667  0.05916667  1.0
  O  O1243  1  0.19830000  0.16666667  0.39250000  1.0
  O  O1244  1  0.19830000  0.16666667  0.72583333  1.0
  O  O1245  1  0.19830000  0.50000000  0.05916667  1.0
  O  O1246  1  0.19830000  0.50000000  0.39250000  1.0
  O  O1247  1  0.19830000  0.50000000  0.72583333  1.0
  O  O1248  1  0.19830000  0.83333333  0.05916667  1.0
  O  O1249  1  0.19830000  0.83333333  0.39250000  1.0
  O  O1250  1  0.19830000  0.83333333  0.72583333  1.0
  O  O1251  1  0.53163333  0.16666667  0.05916667  1.0
  O  O1252  1  0.53163333  0.16666667  0.39250000  1.0
  O  O1253  1  0.53163333  0.16666667  0.72583333  1.0
  O  O1254  1  0.53163333  0.50000000  0.05916667  1.0
  O  O1255  1  0.53163333  0.50000000  0.39250000  1.0
  O  O1256  1  0.53163333  0.50000000  0.72583333  1.0
  O  O1257  1  0.53163333  0.83333333  0.05916667  1.0
  O  O1258  1  0.53163333  0.83333333  0.39250000  1.0
  O  O1259  1  0.53163333  0.83333333  0.72583333  1.0
  O  O1260  1  0.86496667  0.16666667  0.05916667  1.0
  O  O1261  1  0.86496667  0.16666667  0.39250000  1.0
  O  O1262  1  0.86496667  0.16666667  0.72583333  1.0
  O  O1263  1  0.86496667  0.50000000  0.05916667  1.0
  O  O1264  1  0.86496667  0.50000000  0.39250000  1.0
  O  O1265  1  0.86496667  0.50000000  0.72583333  1.0
  O  O1266  1  0.86496667  0.83333333  0.05916667  1.0
  O  O1267  1  0.86496667  0.83333333  0.39250000  1.0
  O  O1268  1  0.86496667  0.83333333  0.72583333  1.0
  O  O1269  1  0.19830000  0.16666667  0.22583333  1.0
  O  O1270  1  0.19830000  0.16666667  0.55916667  1.0
  O  O1271  1  0.19830000  0.16666667  0.89250000  1.0
  O  O1272  1  0.19830000  0.50000000  0.22583333  1.0
  O  O1273  1  0.19830000  0.50000000  0.55916667  1.0
  O  O1274  1  0.19830000  0.50000000  0.89250000  1.0
  O  O1275  1  0.19830000  0.83333333  0.22583333  1.0
  O  O1276  1  0.19830000  0.83333333  0.55916667  1.0
  O  O1277  1  0.19830000  0.83333333  0.89250000  1.0
  O  O1278  1  0.53163333  0.16666667  0.22583333  1.0
  O  O1279  1  0.53163333  0.16666667  0.55916667  1.0
  O  O1280  1  0.53163333  0.16666667  0.89250000  1.0
  O  O1281  1  0.53163333  0.50000000  0.22583333  1.0
  O  O1282  1  0.53163333  0.50000000  0.55916667  1.0
  O  O1283  1  0.53163333  0.50000000  0.89250000  1.0
  O  O1284  1  0.53163333  0.83333333  0.22583333  1.0
  O  O1285  1  0.53163333  0.83333333  0.55916667  1.0
  O  O1286  1  0.53163333  0.83333333  0.89250000  1.0
  O  O1287  1  0.86496667  0.16666667  0.22583333  1.0
  O  O1288  1  0.86496667  0.16666667  0.55916667  1.0
  O  O1289  1  0.86496667  0.16666667  0.89250000  1.0
  O  O1290  1  0.86496667  0.50000000  0.22583333  1.0
  O  O1291  1  0.86496667  0.50000000  0.55916667  1.0
  O  O1292  1  0.86496667  0.50000000  0.89250000  1.0
  O  O1293  1  0.86496667  0.83333333  0.22583333  1.0
  O  O1294  1  0.86496667  0.83333333  0.55916667  1.0
  O  O1295  1  0.86496667  0.83333333  0.89250000  1.0
  O  O1296  1  1.00000000  0.03163333  0.10750000  1.0
  O  O1297  1  1.00000000  0.03163333  0.44083333  1.0
  O  O1298  1  1.00000000  0.03163333  0.77416667  1.0
  O  O1299  1  1.00000000  0.36496667  0.10750000  1.0
  O  O1300  1  1.00000000  0.36496667  0.44083333  1.0
  O  O1301  1  1.00000000  0.36496667  0.77416667  1.0
  O  O1302  1  1.00000000  0.69830000  0.10750000  1.0
  O  O1303  1  1.00000000  0.69830000  0.44083333  1.0
  O  O1304  1  1.00000000  0.69830000  0.77416667  1.0
  O  O1305  1  0.33333333  0.03163333  0.10750000  1.0
  O  O1306  1  0.33333333  0.03163333  0.44083333  1.0
  O  O1307  1  0.33333333  0.03163333  0.77416667  1.0
  O  O1308  1  0.33333333  0.36496667  0.10750000  1.0
  O  O1309  1  0.33333333  0.36496667  0.44083333  1.0
  O  O1310  1  0.33333333  0.36496667  0.77416667  1.0
  O  O1311  1  0.33333333  0.69830000  0.10750000  1.0
  O  O1312  1  0.33333333  0.69830000  0.44083333  1.0
  O  O1313  1  0.33333333  0.69830000  0.77416667  1.0
  O  O1314  1  0.66666667  0.03163333  0.10750000  1.0
  O  O1315  1  0.66666667  0.03163333  0.44083333  1.0
  O  O1316  1  0.66666667  0.03163333  0.77416667  1.0
  O  O1317  1  0.66666667  0.36496667  0.10750000  1.0
  O  O1318  1  0.66666667  0.36496667  0.44083333  1.0
  O  O1319  1  0.66666667  0.36496667  0.77416667  1.0
  O  O1320  1  0.66666667  0.69830000  0.10750000  1.0
  O  O1321  1  0.66666667  0.69830000  0.44083333  1.0
  O  O1322  1  0.66666667  0.69830000  0.77416667  1.0
  O  O1323  1  1.00000000  0.03163333  0.27416667  1.0
  O  O1324  1  1.00000000  0.03163333  0.60750000  1.0
  O  O1325  1  1.00000000  0.03163333  0.94083333  1.0
  O  O1326  1  1.00000000  0.36496667  0.27416667  1.0
  O  O1327  1  1.00000000  0.36496667  0.60750000  1.0
  O  O1328  1  1.00000000  0.36496667  0.94083333  1.0
  O  O1329  1  1.00000000  0.69830000  0.27416667  1.0
  O  O1330  1  1.00000000  0.69830000  0.60750000  1.0
  O  O1331  1  1.00000000  0.69830000  0.94083333  1.0
  O  O1332  1  0.33333333  0.03163333  0.27416667  1.0
  O  O1333  1  0.33333333  0.03163333  0.60750000  1.0
  O  O1334  1  0.33333333  0.03163333  0.94083333  1.0
  O  O1335  1  0.33333333  0.36496667  0.27416667  1.0
  O  O1336  1  0.33333333  0.36496667  0.60750000  1.0
  O  O1337  1  0.33333333  0.36496667  0.94083333  1.0
  O  O1338  1  0.33333333  0.69830000  0.27416667  1.0
  O  O1339  1  0.33333333  0.69830000  0.60750000  1.0
  O  O1340  1  0.33333333  0.69830000  0.94083333  1.0
  O  O1341  1  0.66666667  0.03163333  0.27416667  1.0
  O  O1342  1  0.66666667  0.03163333  0.60750000  1.0
  O  O1343  1  0.66666667  0.03163333  0.94083333  1.0
  O  O1344  1  0.66666667  0.36496667  0.27416667  1.0
  O  O1345  1  0.66666667  0.36496667  0.60750000  1.0
  O  O1346  1  0.66666667  0.36496667  0.94083333  1.0
  O  O1347  1  0.66666667  0.69830000  0.27416667  1.0
  O  O1348  1  0.66666667  0.69830000  0.60750000  1.0
  O  O1349  1  0.66666667  0.69830000  0.94083333  1.0
  O  O1350  1  0.00000000  0.19830000  0.10750000  1.0
  O  O1351  1  0.00000000  0.19830000  0.44083333  1.0
  O  O1352  1  0.00000000  0.19830000  0.77416667  1.0
  O  O1353  1  1.00000000  0.53163333  0.10750000  1.0
  O  O1354  1  1.00000000  0.53163333  0.44083333  1.0
  O  O1355  1  1.00000000  0.53163333  0.77416667  1.0
  O  O1356  1  1.00000000  0.86496667  0.10750000  1.0
  O  O1357  1  1.00000000  0.86496667  0.44083333  1.0
  O  O1358  1  1.00000000  0.86496667  0.77416667  1.0
  O  O1359  1  0.33333333  0.19830000  0.10750000  1.0
  O  O1360  1  0.33333333  0.19830000  0.44083333  1.0
  O  O1361  1  0.33333333  0.19830000  0.77416667  1.0
  O  O1362  1  0.33333333  0.53163333  0.10750000  1.0
  O  O1363  1  0.33333333  0.53163333  0.44083333  1.0
  O  O1364  1  0.33333333  0.53163333  0.77416667  1.0
  O  O1365  1  0.33333333  0.86496667  0.10750000  1.0
  O  O1366  1  0.33333333  0.86496667  0.44083333  1.0
  O  O1367  1  0.33333333  0.86496667  0.77416667  1.0
  O  O1368  1  0.66666667  0.19830000  0.10750000  1.0
  O  O1369  1  0.66666667  0.19830000  0.44083333  1.0
  O  O1370  1  0.66666667  0.19830000  0.77416667  1.0
  O  O1371  1  0.66666667  0.53163333  0.10750000  1.0
  O  O1372  1  0.66666667  0.53163333  0.44083333  1.0
  O  O1373  1  0.66666667  0.53163333  0.77416667  1.0
  O  O1374  1  0.66666667  0.86496667  0.10750000  1.0
  O  O1375  1  0.66666667  0.86496667  0.44083333  1.0
  O  O1376  1  0.66666667  0.86496667  0.77416667  1.0
  O  O1377  1  0.00000000  0.19830000  0.27416667  1.0
  O  O1378  1  0.00000000  0.19830000  0.60750000  1.0
  O  O1379  1  0.00000000  0.19830000  0.94083333  1.0
  O  O1380  1  1.00000000  0.53163333  0.27416667  1.0
  O  O1381  1  1.00000000  0.53163333  0.60750000  1.0
  O  O1382  1  1.00000000  0.53163333  0.94083333  1.0
  O  O1383  1  1.00000000  0.86496667  0.27416667  1.0
  O  O1384  1  1.00000000  0.86496667  0.60750000  1.0
  O  O1385  1  1.00000000  0.86496667  0.94083333  1.0
  O  O1386  1  0.33333333  0.19830000  0.27416667  1.0
  O  O1387  1  0.33333333  0.19830000  0.60750000  1.0
  O  O1388  1  0.33333333  0.19830000  0.94083333  1.0
  O  O1389  1  0.33333333  0.53163333  0.27416667  1.0
  O  O1390  1  0.33333333  0.53163333  0.60750000  1.0
  O  O1391  1  0.33333333  0.53163333  0.94083333  1.0
  O  O1392  1  0.33333333  0.86496667  0.27416667  1.0
  O  O1393  1  0.33333333  0.86496667  0.60750000  1.0
  O  O1394  1  0.33333333  0.86496667  0.94083333  1.0
  O  O1395  1  0.66666667  0.19830000  0.27416667  1.0
  O  O1396  1  0.66666667  0.19830000  0.60750000  1.0
  O  O1397  1  0.66666667  0.19830000  0.94083333  1.0
  O  O1398  1  0.66666667  0.53163333  0.27416667  1.0
  O  O1399  1  0.66666667  0.53163333  0.60750000  1.0
  O  O1400  1  0.66666667  0.53163333  0.94083333  1.0
  O  O1401  1  0.66666667  0.86496667  0.27416667  1.0
  O  O1402  1  0.66666667  0.86496667  0.60750000  1.0
  O  O1403  1  0.66666667  0.86496667  0.94083333  1.0
  O  O1404  1  0.16666667  0.03163333  0.10750000  1.0
  O  O1405  1  0.16666667  0.03163333  0.44083333  1.0
  O  O1406  1  0.16666667  0.03163333  0.77416667  1.0
  O  O1407  1  0.16666667  0.36496667  0.10750000  1.0
  O  O1408  1  0.16666667  0.36496667  0.44083333  1.0
  O  O1409  1  0.16666667  0.36496667  0.77416667  1.0
  O  O1410  1  0.16666667  0.69830000  0.10750000  1.0
  O  O1411  1  0.16666667  0.69830000  0.44083333  1.0
  O  O1412  1  0.16666667  0.69830000  0.77416667  1.0
  O  O1413  1  0.50000000  0.03163333  0.10750000  1.0
  O  O1414  1  0.50000000  0.03163333  0.44083333  1.0
  O  O1415  1  0.50000000  0.03163333  0.77416667  1.0
  O  O1416  1  0.50000000  0.36496667  0.10750000  1.0
  O  O1417  1  0.50000000  0.36496667  0.44083333  1.0
  O  O1418  1  0.50000000  0.36496667  0.77416667  1.0
  O  O1419  1  0.50000000  0.69830000  0.10750000  1.0
  O  O1420  1  0.50000000  0.69830000  0.44083333  1.0
  O  O1421  1  0.50000000  0.69830000  0.77416667  1.0
  O  O1422  1  0.83333333  0.03163333  0.10750000  1.0
  O  O1423  1  0.83333333  0.03163333  0.44083333  1.0
  O  O1424  1  0.83333333  0.03163333  0.77416667  1.0
  O  O1425  1  0.83333333  0.36496667  0.10750000  1.0
  O  O1426  1  0.83333333  0.36496667  0.44083333  1.0
  O  O1427  1  0.83333333  0.36496667  0.77416667  1.0
  O  O1428  1  0.83333333  0.69830000  0.10750000  1.0
  O  O1429  1  0.83333333  0.69830000  0.44083333  1.0
  O  O1430  1  0.83333333  0.69830000  0.77416667  1.0
  O  O1431  1  0.16666667  0.03163333  0.27416667  1.0
  O  O1432  1  0.16666667  0.03163333  0.60750000  1.0
  O  O1433  1  0.16666667  0.03163333  0.94083333  1.0
  O  O1434  1  0.16666667  0.36496667  0.27416667  1.0
  O  O1435  1  0.16666667  0.36496667  0.60750000  1.0
  O  O1436  1  0.16666667  0.36496667  0.94083333  1.0
  O  O1437  1  0.16666667  0.69830000  0.27416667  1.0
  O  O1438  1  0.16666667  0.69830000  0.60750000  1.0
  O  O1439  1  0.16666667  0.69830000  0.94083333  1.0
  O  O1440  1  0.50000000  0.03163333  0.27416667  1.0
  O  O1441  1  0.50000000  0.03163333  0.60750000  1.0
  O  O1442  1  0.50000000  0.03163333  0.94083333  1.0
  O  O1443  1  0.50000000  0.36496667  0.27416667  1.0
  O  O1444  1  0.50000000  0.36496667  0.60750000  1.0
  O  O1445  1  0.50000000  0.36496667  0.94083333  1.0
  O  O1446  1  0.50000000  0.69830000  0.27416667  1.0
  O  O1447  1  0.50000000  0.69830000  0.60750000  1.0
  O  O1448  1  0.50000000  0.69830000  0.94083333  1.0
  O  O1449  1  0.83333333  0.03163333  0.27416667  1.0
  O  O1450  1  0.83333333  0.03163333  0.60750000  1.0
  O  O1451  1  0.83333333  0.03163333  0.94083333  1.0
  O  O1452  1  0.83333333  0.36496667  0.27416667  1.0
  O  O1453  1  0.83333333  0.36496667  0.60750000  1.0
  O  O1454  1  0.83333333  0.36496667  0.94083333  1.0
  O  O1455  1  0.83333333  0.69830000  0.27416667  1.0
  O  O1456  1  0.83333333  0.69830000  0.60750000  1.0
  O  O1457  1  0.83333333  0.69830000  0.94083333  1.0
  O  O1458  1  0.16666667  0.19830000  0.10750000  1.0
  O  O1459  1  0.16666667  0.19830000  0.44083333  1.0
  O  O1460  1  0.16666667  0.19830000  0.77416667  1.0
  O  O1461  1  0.16666667  0.53163333  0.10750000  1.0
  O  O1462  1  0.16666667  0.53163333  0.44083333  1.0
  O  O1463  1  0.16666667  0.53163333  0.77416667  1.0
  O  O1464  1  0.16666667  0.86496667  0.10750000  1.0
  O  O1465  1  0.16666667  0.86496667  0.44083333  1.0
  O  O1466  1  0.16666667  0.86496667  0.77416667  1.0
  O  O1467  1  0.50000000  0.19830000  0.10750000  1.0
  O  O1468  1  0.50000000  0.19830000  0.44083333  1.0
  O  O1469  1  0.50000000  0.19830000  0.77416667  1.0
  O  O1470  1  0.50000000  0.53163333  0.10750000  1.0
  O  O1471  1  0.50000000  0.53163333  0.44083333  1.0
  O  O1472  1  0.50000000  0.53163333  0.77416667  1.0
  O  O1473  1  0.50000000  0.86496667  0.10750000  1.0
  O  O1474  1  0.50000000  0.86496667  0.44083333  1.0
  O  O1475  1  0.50000000  0.86496667  0.77416667  1.0
  O  O1476  1  0.83333333  0.19830000  0.10750000  1.0
  O  O1477  1  0.83333333  0.19830000  0.44083333  1.0
  O  O1478  1  0.83333333  0.19830000  0.77416667  1.0
  O  O1479  1  0.83333333  0.53163333  0.10750000  1.0
  O  O1480  1  0.83333333  0.53163333  0.44083333  1.0
  O  O1481  1  0.83333333  0.53163333  0.77416667  1.0
  O  O1482  1  0.83333333  0.86496667  0.10750000  1.0
  O  O1483  1  0.83333333  0.86496667  0.44083333  1.0
  O  O1484  1  0.83333333  0.86496667  0.77416667  1.0
  O  O1485  1  0.16666667  0.19830000  0.27416667  1.0
  O  O1486  1  0.16666667  0.19830000  0.60750000  1.0
  O  O1487  1  0.16666667  0.19830000  0.94083333  1.0
  O  O1488  1  0.16666667  0.53163333  0.27416667  1.0
  O  O1489  1  0.16666667  0.53163333  0.60750000  1.0
  O  O1490  1  0.16666667  0.53163333  0.94083333  1.0
  O  O1491  1  0.16666667  0.86496667  0.27416667  1.0
  O  O1492  1  0.16666667  0.86496667  0.60750000  1.0
  O  O1493  1  0.16666667  0.86496667  0.94083333  1.0
  O  O1494  1  0.50000000  0.19830000  0.27416667  1.0
  O  O1495  1  0.50000000  0.19830000  0.60750000  1.0
  O  O1496  1  0.50000000  0.19830000  0.94083333  1.0
  O  O1497  1  0.50000000  0.53163333  0.27416667  1.0
  O  O1498  1  0.50000000  0.53163333  0.60750000  1.0
  O  O1499  1  0.50000000  0.53163333  0.94083333  1.0
  O  O1500  1  0.50000000  0.86496667  0.27416667  1.0
  O  O1501  1  0.50000000  0.86496667  0.60750000  1.0
  O  O1502  1  0.50000000  0.86496667  0.94083333  1.0
  O  O1503  1  0.83333333  0.19830000  0.27416667  1.0
  O  O1504  1  0.83333333  0.19830000  0.60750000  1.0
  O  O1505  1  0.83333333  0.19830000  0.94083333  1.0
  O  O1506  1  0.83333333  0.53163333  0.27416667  1.0
  O  O1507  1  0.83333333  0.53163333  0.60750000  1.0
  O  O1508  1  0.83333333  0.53163333  0.94083333  1.0
  O  O1509  1  0.83333333  0.86496667  0.27416667  1.0
  O  O1510  1  0.83333333  0.86496667  0.60750000  1.0
  O  O1511  1  0.83333333  0.86496667  0.94083333  1.0
  O  O1512  1  0.13503333  0.00000000  0.05916667  1.0
  O  O1513  1  0.13503333  0.00000000  0.39250000  1.0
  O  O1514  1  0.13503333  0.00000000  0.72583333  1.0
  O  O1515  1  0.13503333  0.33333333  0.05916667  1.0
  O  O1516  1  0.13503333  0.33333333  0.39250000  1.0
  O  O1517  1  0.13503333  0.33333333  0.72583333  1.0
  O  O1518  1  0.13503333  0.66666667  0.05916667  1.0
  O  O1519  1  0.13503333  0.66666667  0.39250000  1.0
  O  O1520  1  0.13503333  0.66666667  0.72583333  1.0
  O  O1521  1  0.46836667  0.00000000  0.05916667  1.0
  O  O1522  1  0.46836667  0.00000000  0.39250000  1.0
  O  O1523  1  0.46836667  0.00000000  0.72583333  1.0
  O  O1524  1  0.46836667  0.33333333  0.05916667  1.0
  O  O1525  1  0.46836667  0.33333333  0.39250000  1.0
  O  O1526  1  0.46836667  0.33333333  0.72583333  1.0
  O  O1527  1  0.46836667  0.66666667  0.05916667  1.0
  O  O1528  1  0.46836667  0.66666667  0.39250000  1.0
  O  O1529  1  0.46836667  0.66666667  0.72583333  1.0
  O  O1530  1  0.80170000  0.00000000  0.05916667  1.0
  O  O1531  1  0.80170000  0.00000000  0.39250000  1.0
  O  O1532  1  0.80170000  0.00000000  0.72583333  1.0
  O  O1533  1  0.80170000  0.33333333  0.05916667  1.0
  O  O1534  1  0.80170000  0.33333333  0.39250000  1.0
  O  O1535  1  0.80170000  0.33333333  0.72583333  1.0
  O  O1536  1  0.80170000  0.66666667  0.05916667  1.0
  O  O1537  1  0.80170000  0.66666667  0.39250000  1.0
  O  O1538  1  0.80170000  0.66666667  0.72583333  1.0
  O  O1539  1  0.13503333  0.00000000  0.22583333  1.0
  O  O1540  1  0.13503333  0.00000000  0.55916667  1.0
  O  O1541  1  0.13503333  0.00000000  0.89250000  1.0
  O  O1542  1  0.13503333  0.33333333  0.22583333  1.0
  O  O1543  1  0.13503333  0.33333333  0.55916667  1.0
  O  O1544  1  0.13503333  0.33333333  0.89250000  1.0
  O  O1545  1  0.13503333  0.66666667  0.22583333  1.0
  O  O1546  1  0.13503333  0.66666667  0.55916667  1.0
  O  O1547  1  0.13503333  0.66666667  0.89250000  1.0
  O  O1548  1  0.46836667  0.00000000  0.22583333  1.0
  O  O1549  1  0.46836667  0.00000000  0.55916667  1.0
  O  O1550  1  0.46836667  0.00000000  0.89250000  1.0
  O  O1551  1  0.46836667  0.33333333  0.22583333  1.0
  O  O1552  1  0.46836667  0.33333333  0.55916667  1.0
  O  O1553  1  0.46836667  0.33333333  0.89250000  1.0
  O  O1554  1  0.46836667  0.66666667  0.22583333  1.0
  O  O1555  1  0.46836667  0.66666667  0.55916667  1.0
  O  O1556  1  0.46836667  0.66666667  0.89250000  1.0
  O  O1557  1  0.80170000  0.00000000  0.22583333  1.0
  O  O1558  1  0.80170000  0.00000000  0.55916667  1.0
  O  O1559  1  0.80170000  0.00000000  0.89250000  1.0
  O  O1560  1  0.80170000  0.33333333  0.22583333  1.0
  O  O1561  1  0.80170000  0.33333333  0.55916667  1.0
  O  O1562  1  0.80170000  0.33333333  0.89250000  1.0
  O  O1563  1  0.80170000  0.66666667  0.22583333  1.0
  O  O1564  1  0.80170000  0.66666667  0.55916667  1.0
  O  O1565  1  0.80170000  0.66666667  0.89250000  1.0
  O  O1566  1  0.13503333  0.16666667  0.05916667  1.0
  O  O1567  1  0.13503333  0.16666667  0.39250000  1.0
  O  O1568  1  0.13503333  0.16666667  0.72583333  1.0
  O  O1569  1  0.13503333  0.50000000  0.05916667  1.0
  O  O1570  1  0.13503333  0.50000000  0.39250000  1.0
  O  O1571  1  0.13503333  0.50000000  0.72583333  1.0
  O  O1572  1  0.13503333  0.83333333  0.05916667  1.0
  O  O1573  1  0.13503333  0.83333333  0.39250000  1.0
  O  O1574  1  0.13503333  0.83333333  0.72583333  1.0
  O  O1575  1  0.46836667  0.16666667  0.05916667  1.0
  O  O1576  1  0.46836667  0.16666667  0.39250000  1.0
  O  O1577  1  0.46836667  0.16666667  0.72583333  1.0
  O  O1578  1  0.46836667  0.50000000  0.05916667  1.0
  O  O1579  1  0.46836667  0.50000000  0.39250000  1.0
  O  O1580  1  0.46836667  0.50000000  0.72583333  1.0
  O  O1581  1  0.46836667  0.83333333  0.05916667  1.0
  O  O1582  1  0.46836667  0.83333333  0.39250000  1.0
  O  O1583  1  0.46836667  0.83333333  0.72583333  1.0
  O  O1584  1  0.80170000  0.16666667  0.05916667  1.0
  O  O1585  1  0.80170000  0.16666667  0.39250000  1.0
  O  O1586  1  0.80170000  0.16666667  0.72583333  1.0
  O  O1587  1  0.80170000  0.50000000  0.05916667  1.0
  O  O1588  1  0.80170000  0.50000000  0.39250000  1.0
  O  O1589  1  0.80170000  0.50000000  0.72583333  1.0
  O  O1590  1  0.80170000  0.83333333  0.05916667  1.0
  O  O1591  1  0.80170000  0.83333333  0.39250000  1.0
  O  O1592  1  0.80170000  0.83333333  0.72583333  1.0
  O  O1593  1  0.13503333  0.16666667  0.22583333  1.0
  O  O1594  1  0.13503333  0.16666667  0.55916667  1.0
  O  O1595  1  0.13503333  0.16666667  0.89250000  1.0
  O  O1596  1  0.13503333  0.50000000  0.22583333  1.0
  O  O1597  1  0.13503333  0.50000000  0.55916667  1.0
  O  O1598  1  0.13503333  0.50000000  0.89250000  1.0
  O  O1599  1  0.13503333  0.83333333  0.22583333  1.0
  O  O1600  1  0.13503333  0.83333333  0.55916667  1.0
  O  O1601  1  0.13503333  0.83333333  0.89250000  1.0
  O  O1602  1  0.46836667  0.16666667  0.22583333  1.0
  O  O1603  1  0.46836667  0.16666667  0.55916667  1.0
  O  O1604  1  0.46836667  0.16666667  0.89250000  1.0
  O  O1605  1  0.46836667  0.50000000  0.22583333  1.0
  O  O1606  1  0.46836667  0.50000000  0.55916667  1.0
  O  O1607  1  0.46836667  0.50000000  0.89250000  1.0
  O  O1608  1  0.46836667  0.83333333  0.22583333  1.0
  O  O1609  1  0.46836667  0.83333333  0.55916667  1.0
  O  O1610  1  0.46836667  0.83333333  0.89250000  1.0
  O  O1611  1  0.80170000  0.16666667  0.22583333  1.0
  O  O1612  1  0.80170000  0.16666667  0.55916667  1.0
  O  O1613  1  0.80170000  0.16666667  0.89250000  1.0
  O  O1614  1  0.80170000  0.50000000  0.22583333  1.0
  O  O1615  1  0.80170000  0.50000000  0.55916667  1.0
  O  O1616  1  0.80170000  0.50000000  0.89250000  1.0
  O  O1617  1  0.80170000  0.83333333  0.22583333  1.0
  O  O1618  1  0.80170000  0.83333333  0.55916667  1.0
  O  O1619  1  0.80170000  0.83333333  0.89250000  1.0
  O  O1620  1  0.30170000  0.00000000  0.05916667  1.0
  O  O1621  1  0.30170000  0.00000000  0.39250000  1.0
  O  O1622  1  0.30170000  0.00000000  0.72583333  1.0
  O  O1623  1  0.30170000  0.33333333  0.05916667  1.0
  O  O1624  1  0.30170000  0.33333333  0.39250000  1.0
  O  O1625  1  0.30170000  0.33333333  0.72583333  1.0
  O  O1626  1  0.30170000  0.66666667  0.05916667  1.0
  O  O1627  1  0.30170000  0.66666667  0.39250000  1.0
  O  O1628  1  0.30170000  0.66666667  0.72583333  1.0
  O  O1629  1  0.63503333  0.00000000  0.05916667  1.0
  O  O1630  1  0.63503333  0.00000000  0.39250000  1.0
  O  O1631  1  0.63503333  0.00000000  0.72583333  1.0
  O  O1632  1  0.63503333  0.33333333  0.05916667  1.0
  O  O1633  1  0.63503333  0.33333333  0.39250000  1.0
  O  O1634  1  0.63503333  0.33333333  0.72583333  1.0
  O  O1635  1  0.63503333  0.66666667  0.05916667  1.0
  O  O1636  1  0.63503333  0.66666667  0.39250000  1.0
  O  O1637  1  0.63503333  0.66666667  0.72583333  1.0
  O  O1638  1  0.96836667  0.00000000  0.05916667  1.0
  O  O1639  1  0.96836667  0.00000000  0.39250000  1.0
  O  O1640  1  0.96836667  0.00000000  0.72583333  1.0
  O  O1641  1  0.96836667  0.33333333  0.05916667  1.0
  O  O1642  1  0.96836667  0.33333333  0.39250000  1.0
  O  O1643  1  0.96836667  0.33333333  0.72583333  1.0
  O  O1644  1  0.96836667  0.66666667  0.05916667  1.0
  O  O1645  1  0.96836667  0.66666667  0.39250000  1.0
  O  O1646  1  0.96836667  0.66666667  0.72583333  1.0
  O  O1647  1  0.30170000  0.00000000  0.22583333  1.0
  O  O1648  1  0.30170000  0.00000000  0.55916667  1.0
  O  O1649  1  0.30170000  0.00000000  0.89250000  1.0
  O  O1650  1  0.30170000  0.33333333  0.22583333  1.0
  O  O1651  1  0.30170000  0.33333333  0.55916667  1.0
  O  O1652  1  0.30170000  0.33333333  0.89250000  1.0
  O  O1653  1  0.30170000  0.66666667  0.22583333  1.0
  O  O1654  1  0.30170000  0.66666667  0.55916667  1.0
  O  O1655  1  0.30170000  0.66666667  0.89250000  1.0
  O  O1656  1  0.63503333  0.00000000  0.22583333  1.0
  O  O1657  1  0.63503333  0.00000000  0.55916667  1.0
  O  O1658  1  0.63503333  0.00000000  0.89250000  1.0
  O  O1659  1  0.63503333  0.33333333  0.22583333  1.0
  O  O1660  1  0.63503333  0.33333333  0.55916667  1.0
  O  O1661  1  0.63503333  0.33333333  0.89250000  1.0
  O  O1662  1  0.63503333  0.66666667  0.22583333  1.0
  O  O1663  1  0.63503333  0.66666667  0.55916667  1.0
  O  O1664  1  0.63503333  0.66666667  0.89250000  1.0
  O  O1665  1  0.96836667  0.00000000  0.22583333  1.0
  O  O1666  1  0.96836667  0.00000000  0.55916667  1.0
  O  O1667  1  0.96836667  0.00000000  0.89250000  1.0
  O  O1668  1  0.96836667  0.33333333  0.22583333  1.0
  O  O1669  1  0.96836667  0.33333333  0.55916667  1.0
  O  O1670  1  0.96836667  0.33333333  0.89250000  1.0
  O  O1671  1  0.96836667  0.66666667  0.22583333  1.0
  O  O1672  1  0.96836667  0.66666667  0.55916667  1.0
  O  O1673  1  0.96836667  0.66666667  0.89250000  1.0
  O  O1674  1  0.30170000  0.16666667  0.05916667  1.0
  O  O1675  1  0.30170000  0.16666667  0.39250000  1.0
  O  O1676  1  0.30170000  0.16666667  0.72583333  1.0
  O  O1677  1  0.30170000  0.50000000  0.05916667  1.0
  O  O1678  1  0.30170000  0.50000000  0.39250000  1.0
  O  O1679  1  0.30170000  0.50000000  0.72583333  1.0
  O  O1680  1  0.30170000  0.83333333  0.05916667  1.0
  O  O1681  1  0.30170000  0.83333333  0.39250000  1.0
  O  O1682  1  0.30170000  0.83333333  0.72583333  1.0
  O  O1683  1  0.63503333  0.16666667  0.05916667  1.0
  O  O1684  1  0.63503333  0.16666667  0.39250000  1.0
  O  O1685  1  0.63503333  0.16666667  0.72583333  1.0
  O  O1686  1  0.63503333  0.50000000  0.05916667  1.0
  O  O1687  1  0.63503333  0.50000000  0.39250000  1.0
  O  O1688  1  0.63503333  0.50000000  0.72583333  1.0
  O  O1689  1  0.63503333  0.83333333  0.05916667  1.0
  O  O1690  1  0.63503333  0.83333333  0.39250000  1.0
  O  O1691  1  0.63503333  0.83333333  0.72583333  1.0
  O  O1692  1  0.96836667  0.16666667  0.05916667  1.0
  O  O1693  1  0.96836667  0.16666667  0.39250000  1.0
  O  O1694  1  0.96836667  0.16666667  0.72583333  1.0
  O  O1695  1  0.96836667  0.50000000  0.05916667  1.0
  O  O1696  1  0.96836667  0.50000000  0.39250000  1.0
  O  O1697  1  0.96836667  0.50000000  0.72583333  1.0
  O  O1698  1  0.96836667  0.83333333  0.05916667  1.0
  O  O1699  1  0.96836667  0.83333333  0.39250000  1.0
  O  O1700  1  0.96836667  0.83333333  0.72583333  1.0
  O  O1701  1  0.30170000  0.16666667  0.22583333  1.0
  O  O1702  1  0.30170000  0.16666667  0.55916667  1.0
  O  O1703  1  0.30170000  0.16666667  0.89250000  1.0
  O  O1704  1  0.30170000  0.50000000  0.22583333  1.0
  O  O1705  1  0.30170000  0.50000000  0.55916667  1.0
  O  O1706  1  0.30170000  0.50000000  0.89250000  1.0
  O  O1707  1  0.30170000  0.83333333  0.22583333  1.0
  O  O1708  1  0.30170000  0.83333333  0.55916667  1.0
  O  O1709  1  0.30170000  0.83333333  0.89250000  1.0
  O  O1710  1  0.63503333  0.16666667  0.22583333  1.0
  O  O1711  1  0.63503333  0.16666667  0.55916667  1.0
  O  O1712  1  0.63503333  0.16666667  0.89250000  1.0
  O  O1713  1  0.63503333  0.50000000  0.22583333  1.0
  O  O1714  1  0.63503333  0.50000000  0.55916667  1.0
  O  O1715  1  0.63503333  0.50000000  0.89250000  1.0
  O  O1716  1  0.63503333  0.83333333  0.22583333  1.0
  O  O1717  1  0.63503333  0.83333333  0.55916667  1.0
  O  O1718  1  0.63503333  0.83333333  0.89250000  1.0
  O  O1719  1  0.96836667  0.16666667  0.22583333  1.0
  O  O1720  1  0.96836667  0.16666667  0.55916667  1.0
  O  O1721  1  0.96836667  0.16666667  0.89250000  1.0
  O  O1722  1  0.96836667  0.50000000  0.22583333  1.0
  O  O1723  1  0.96836667  0.50000000  0.55916667  1.0
  O  O1724  1  0.96836667  0.50000000  0.89250000  1.0
  O  O1725  1  0.96836667  0.83333333  0.22583333  1.0
  O  O1726  1  0.96836667  0.83333333  0.55916667  1.0
  O  O1727  1  0.96836667  0.83333333  0.89250000  1.0
  O  O1728  1  1.00000000  0.13503333  0.10750000  1.0
  O  O1729  1  1.00000000  0.13503333  0.44083333  1.0
  O  O1730  1  1.00000000  0.13503333  0.77416667  1.0
  O  O1731  1  1.00000000  0.46836667  0.10750000  1.0
  O  O1732  1  1.00000000  0.46836667  0.44083333  1.0
  O  O1733  1  1.00000000  0.46836667  0.77416667  1.0
  O  O1734  1  1.00000000  0.80170000  0.10750000  1.0
  O  O1735  1  1.00000000  0.80170000  0.44083333  1.0
  O  O1736  1  1.00000000  0.80170000  0.77416667  1.0
  O  O1737  1  0.33333333  0.13503333  0.10750000  1.0
  O  O1738  1  0.33333333  0.13503333  0.44083333  1.0
  O  O1739  1  0.33333333  0.13503333  0.77416667  1.0
  O  O1740  1  0.33333333  0.46836667  0.10750000  1.0
  O  O1741  1  0.33333333  0.46836667  0.44083333  1.0
  O  O1742  1  0.33333333  0.46836667  0.77416667  1.0
  O  O1743  1  0.33333333  0.80170000  0.10750000  1.0
  O  O1744  1  0.33333333  0.80170000  0.44083333  1.0
  O  O1745  1  0.33333333  0.80170000  0.77416667  1.0
  O  O1746  1  0.66666667  0.13503333  0.10750000  1.0
  O  O1747  1  0.66666667  0.13503333  0.44083333  1.0
  O  O1748  1  0.66666667  0.13503333  0.77416667  1.0
  O  O1749  1  0.66666667  0.46836667  0.10750000  1.0
  O  O1750  1  0.66666667  0.46836667  0.44083333  1.0
  O  O1751  1  0.66666667  0.46836667  0.77416667  1.0
  O  O1752  1  0.66666667  0.80170000  0.10750000  1.0
  O  O1753  1  0.66666667  0.80170000  0.44083333  1.0
  O  O1754  1  0.66666667  0.80170000  0.77416667  1.0
  O  O1755  1  1.00000000  0.13503333  0.27416667  1.0
  O  O1756  1  1.00000000  0.13503333  0.60750000  1.0
  O  O1757  1  1.00000000  0.13503333  0.94083333  1.0
  O  O1758  1  1.00000000  0.46836667  0.27416667  1.0
  O  O1759  1  1.00000000  0.46836667  0.60750000  1.0
  O  O1760  1  1.00000000  0.46836667  0.94083333  1.0
  O  O1761  1  1.00000000  0.80170000  0.27416667  1.0
  O  O1762  1  1.00000000  0.80170000  0.60750000  1.0
  O  O1763  1  1.00000000  0.80170000  0.94083333  1.0
  O  O1764  1  0.33333333  0.13503333  0.27416667  1.0
  O  O1765  1  0.33333333  0.13503333  0.60750000  1.0
  O  O1766  1  0.33333333  0.13503333  0.94083333  1.0
  O  O1767  1  0.33333333  0.46836667  0.27416667  1.0
  O  O1768  1  0.33333333  0.46836667  0.60750000  1.0
  O  O1769  1  0.33333333  0.46836667  0.94083333  1.0
  O  O1770  1  0.33333333  0.80170000  0.27416667  1.0
  O  O1771  1  0.33333333  0.80170000  0.60750000  1.0
  O  O1772  1  0.33333333  0.80170000  0.94083333  1.0
  O  O1773  1  0.66666667  0.13503333  0.27416667  1.0
  O  O1774  1  0.66666667  0.13503333  0.60750000  1.0
  O  O1775  1  0.66666667  0.13503333  0.94083333  1.0
  O  O1776  1  0.66666667  0.46836667  0.27416667  1.0
  O  O1777  1  0.66666667  0.46836667  0.60750000  1.0
  O  O1778  1  0.66666667  0.46836667  0.94083333  1.0
  O  O1779  1  0.66666667  0.80170000  0.27416667  1.0
  O  O1780  1  0.66666667  0.80170000  0.60750000  1.0
  O  O1781  1  0.66666667  0.80170000  0.94083333  1.0
  O  O1782  1  0.00000000  0.30170000  0.10750000  1.0
  O  O1783  1  0.00000000  0.30170000  0.44083333  1.0
  O  O1784  1  0.00000000  0.30170000  0.77416667  1.0
  O  O1785  1  0.00000000  0.63503333  0.10750000  1.0
  O  O1786  1  0.00000000  0.63503333  0.44083333  1.0
  O  O1787  1  0.00000000  0.63503333  0.77416667  1.0
  O  O1788  1  1.00000000  0.96836667  0.10750000  1.0
  O  O1789  1  1.00000000  0.96836667  0.44083333  1.0
  O  O1790  1  1.00000000  0.96836667  0.77416667  1.0
  O  O1791  1  0.33333333  0.30170000  0.10750000  1.0
  O  O1792  1  0.33333333  0.30170000  0.44083333  1.0
  O  O1793  1  0.33333333  0.30170000  0.77416667  1.0
  O  O1794  1  0.33333333  0.63503333  0.10750000  1.0
  O  O1795  1  0.33333333  0.63503333  0.44083333  1.0
  O  O1796  1  0.33333333  0.63503333  0.77416667  1.0
  O  O1797  1  0.33333333  0.96836667  0.10750000  1.0
  O  O1798  1  0.33333333  0.96836667  0.44083333  1.0
  O  O1799  1  0.33333333  0.96836667  0.77416667  1.0
  O  O1800  1  0.66666667  0.30170000  0.10750000  1.0
  O  O1801  1  0.66666667  0.30170000  0.44083333  1.0
  O  O1802  1  0.66666667  0.30170000  0.77416667  1.0
  O  O1803  1  0.66666667  0.63503333  0.10750000  1.0
  O  O1804  1  0.66666667  0.63503333  0.44083333  1.0
  O  O1805  1  0.66666667  0.63503333  0.77416667  1.0
  O  O1806  1  0.66666667  0.96836667  0.10750000  1.0
  O  O1807  1  0.66666667  0.96836667  0.44083333  1.0
  O  O1808  1  0.66666667  0.96836667  0.77416667  1.0
  O  O1809  1  0.00000000  0.30170000  0.27416667  1.0
  O  O1810  1  0.00000000  0.30170000  0.60750000  1.0
  O  O1811  1  0.00000000  0.30170000  0.94083333  1.0
  O  O1812  1  0.00000000  0.63503333  0.27416667  1.0
  O  O1813  1  0.00000000  0.63503333  0.60750000  1.0
  O  O1814  1  0.00000000  0.63503333  0.94083333  1.0
  O  O1815  1  1.00000000  0.96836667  0.27416667  1.0
  O  O1816  1  1.00000000  0.96836667  0.60750000  1.0
  O  O1817  1  1.00000000  0.96836667  0.94083333  1.0
  O  O1818  1  0.33333333  0.30170000  0.27416667  1.0
  O  O1819  1  0.33333333  0.30170000  0.60750000  1.0
  O  O1820  1  0.33333333  0.30170000  0.94083333  1.0
  O  O1821  1  0.33333333  0.63503333  0.27416667  1.0
  O  O1822  1  0.33333333  0.63503333  0.60750000  1.0
  O  O1823  1  0.33333333  0.63503333  0.94083333  1.0
  O  O1824  1  0.33333333  0.96836667  0.27416667  1.0
  O  O1825  1  0.33333333  0.96836667  0.60750000  1.0
  O  O1826  1  0.33333333  0.96836667  0.94083333  1.0
  O  O1827  1  0.66666667  0.30170000  0.27416667  1.0
  O  O1828  1  0.66666667  0.30170000  0.60750000  1.0
  O  O1829  1  0.66666667  0.30170000  0.94083333  1.0
  O  O1830  1  0.66666667  0.63503333  0.27416667  1.0
  O  O1831  1  0.66666667  0.63503333  0.60750000  1.0
  O  O1832  1  0.66666667  0.63503333  0.94083333  1.0
  O  O1833  1  0.66666667  0.96836667  0.27416667  1.0
  O  O1834  1  0.66666667  0.96836667  0.60750000  1.0
  O  O1835  1  0.66666667  0.96836667  0.94083333  1.0
  O  O1836  1  0.16666667  0.13503333  0.10750000  1.0
  O  O1837  1  0.16666667  0.13503333  0.44083333  1.0
  O  O1838  1  0.16666667  0.13503333  0.77416667  1.0
  O  O1839  1  0.16666667  0.46836667  0.10750000  1.0
  O  O1840  1  0.16666667  0.46836667  0.44083333  1.0
  O  O1841  1  0.16666667  0.46836667  0.77416667  1.0
  O  O1842  1  0.16666667  0.80170000  0.10750000  1.0
  O  O1843  1  0.16666667  0.80170000  0.44083333  1.0
  O  O1844  1  0.16666667  0.80170000  0.77416667  1.0
  O  O1845  1  0.50000000  0.13503333  0.10750000  1.0
  O  O1846  1  0.50000000  0.13503333  0.44083333  1.0
  O  O1847  1  0.50000000  0.13503333  0.77416667  1.0
  O  O1848  1  0.50000000  0.46836667  0.10750000  1.0
  O  O1849  1  0.50000000  0.46836667  0.44083333  1.0
  O  O1850  1  0.50000000  0.46836667  0.77416667  1.0
  O  O1851  1  0.50000000  0.80170000  0.10750000  1.0
  O  O1852  1  0.50000000  0.80170000  0.44083333  1.0
  O  O1853  1  0.50000000  0.80170000  0.77416667  1.0
  O  O1854  1  0.83333333  0.13503333  0.10750000  1.0
  O  O1855  1  0.83333333  0.13503333  0.44083333  1.0
  O  O1856  1  0.83333333  0.13503333  0.77416667  1.0
  O  O1857  1  0.83333333  0.46836667  0.10750000  1.0
  O  O1858  1  0.83333333  0.46836667  0.44083333  1.0
  O  O1859  1  0.83333333  0.46836667  0.77416667  1.0
  O  O1860  1  0.83333333  0.80170000  0.10750000  1.0
  O  O1861  1  0.83333333  0.80170000  0.44083333  1.0
  O  O1862  1  0.83333333  0.80170000  0.77416667  1.0
  O  O1863  1  0.16666667  0.13503333  0.27416667  1.0
  O  O1864  1  0.16666667  0.13503333  0.60750000  1.0
  O  O1865  1  0.16666667  0.13503333  0.94083333  1.0
  O  O1866  1  0.16666667  0.46836667  0.27416667  1.0
  O  O1867  1  0.16666667  0.46836667  0.60750000  1.0
  O  O1868  1  0.16666667  0.46836667  0.94083333  1.0
  O  O1869  1  0.16666667  0.80170000  0.27416667  1.0
  O  O1870  1  0.16666667  0.80170000  0.60750000  1.0
  O  O1871  1  0.16666667  0.80170000  0.94083333  1.0
  O  O1872  1  0.50000000  0.13503333  0.27416667  1.0
  O  O1873  1  0.50000000  0.13503333  0.60750000  1.0
  O  O1874  1  0.50000000  0.13503333  0.94083333  1.0
  O  O1875  1  0.50000000  0.46836667  0.27416667  1.0
  O  O1876  1  0.50000000  0.46836667  0.60750000  1.0
  O  O1877  1  0.50000000  0.46836667  0.94083333  1.0
  O  O1878  1  0.50000000  0.80170000  0.27416667  1.0
  O  O1879  1  0.50000000  0.80170000  0.60750000  1.0
  O  O1880  1  0.50000000  0.80170000  0.94083333  1.0
  O  O1881  1  0.83333333  0.13503333  0.27416667  1.0
  O  O1882  1  0.83333333  0.13503333  0.60750000  1.0
  O  O1883  1  0.83333333  0.13503333  0.94083333  1.0
  O  O1884  1  0.83333333  0.46836667  0.27416667  1.0
  O  O1885  1  0.83333333  0.46836667  0.60750000  1.0
  O  O1886  1  0.83333333  0.46836667  0.94083333  1.0
  O  O1887  1  0.83333333  0.80170000  0.27416667  1.0
  O  O1888  1  0.83333333  0.80170000  0.60750000  1.0
  O  O1889  1  0.83333333  0.80170000  0.94083333  1.0
  O  O1890  1  0.16666667  0.30170000  0.10750000  1.0
  O  O1891  1  0.16666667  0.30170000  0.44083333  1.0
  O  O1892  1  0.16666667  0.30170000  0.77416667  1.0
  O  O1893  1  0.16666667  0.63503333  0.10750000  1.0
  O  O1894  1  0.16666667  0.63503333  0.44083333  1.0
  O  O1895  1  0.16666667  0.63503333  0.77416667  1.0
  O  O1896  1  0.16666667  0.96836667  0.10750000  1.0
  O  O1897  1  0.16666667  0.96836667  0.44083333  1.0
  O  O1898  1  0.16666667  0.96836667  0.77416667  1.0
  O  O1899  1  0.50000000  0.30170000  0.10750000  1.0
  O  O1900  1  0.50000000  0.30170000  0.44083333  1.0
  O  O1901  1  0.50000000  0.30170000  0.77416667  1.0
  O  O1902  1  0.50000000  0.63503333  0.10750000  1.0
  O  O1903  1  0.50000000  0.63503333  0.44083333  1.0
  O  O1904  1  0.50000000  0.63503333  0.77416667  1.0
  O  O1905  1  0.50000000  0.96836667  0.10750000  1.0
  O  O1906  1  0.50000000  0.96836667  0.44083333  1.0
  O  O1907  1  0.50000000  0.96836667  0.77416667  1.0
  O  O1908  1  0.83333333  0.30170000  0.10750000  1.0
  O  O1909  1  0.83333333  0.30170000  0.44083333  1.0
  O  O1910  1  0.83333333  0.30170000  0.77416667  1.0
  O  O1911  1  0.83333333  0.63503333  0.10750000  1.0
  O  O1912  1  0.83333333  0.63503333  0.44083333  1.0
  O  O1913  1  0.83333333  0.63503333  0.77416667  1.0
  O  O1914  1  0.83333333  0.96836667  0.10750000  1.0
  O  O1915  1  0.83333333  0.96836667  0.44083333  1.0
  O  O1916  1  0.83333333  0.96836667  0.77416667  1.0
  O  O1917  1  0.16666667  0.30170000  0.27416667  1.0
  O  O1918  1  0.16666667  0.30170000  0.60750000  1.0
  O  O1919  1  0.16666667  0.30170000  0.94083333  1.0
  O  O1920  1  0.16666667  0.63503333  0.27416667  1.0
  O  O1921  1  0.16666667  0.63503333  0.60750000  1.0
  O  O1922  1  0.16666667  0.63503333  0.94083333  1.0
  O  O1923  1  0.16666667  0.96836667  0.27416667  1.0
  O  O1924  1  0.16666667  0.96836667  0.60750000  1.0
  O  O1925  1  0.16666667  0.96836667  0.94083333  1.0
  O  O1926  1  0.50000000  0.30170000  0.27416667  1.0
  O  O1927  1  0.50000000  0.30170000  0.60750000  1.0
  O  O1928  1  0.50000000  0.30170000  0.94083333  1.0
  O  O1929  1  0.50000000  0.63503333  0.27416667  1.0
  O  O1930  1  0.50000000  0.63503333  0.60750000  1.0
  O  O1931  1  0.50000000  0.63503333  0.94083333  1.0
  O  O1932  1  0.50000000  0.96836667  0.27416667  1.0
  O  O1933  1  0.50000000  0.96836667  0.60750000  1.0
  O  O1934  1  0.50000000  0.96836667  0.94083333  1.0
  O  O1935  1  0.83333333  0.30170000  0.27416667  1.0
  O  O1936  1  0.83333333  0.30170000  0.60750000  1.0
  O  O1937  1  0.83333333  0.30170000  0.94083333  1.0
  O  O1938  1  0.83333333  0.63503333  0.27416667  1.0
  O  O1939  1  0.83333333  0.63503333  0.60750000  1.0
  O  O1940  1  0.83333333  0.63503333  0.94083333  1.0
  O  O1941  1  0.83333333  0.96836667  0.27416667  1.0
  O  O1942  1  0.83333333  0.96836667  0.60750000  1.0
  O  O1943  1  0.83333333  0.96836667  0.94083333  1.0
  O  O1944  1  0.03161667  0.03161667  0.00000000  1.0
  O  O1945  1  0.03161667  0.03161667  0.33333333  1.0
  O  O1946  1  0.03161667  0.03161667  0.66666667  1.0
  O  O1947  1  0.03161667  0.36495000  1.00000000  1.0
  O  O1948  1  0.03161667  0.36495000  0.33333333  1.0
  O  O1949  1  0.03161667  0.36495000  0.66666667  1.0
  O  O1950  1  0.03161667  0.69828333  0.00000000  1.0
  O  O1951  1  0.03161667  0.69828333  0.33333333  1.0
  O  O1952  1  0.03161667  0.69828333  0.66666667  1.0
  O  O1953  1  0.36495000  0.03161667  1.00000000  1.0
  O  O1954  1  0.36495000  0.03161667  0.33333333  1.0
  O  O1955  1  0.36495000  0.03161667  0.66666667  1.0
  O  O1956  1  0.36495000  0.36495000  0.00000000  1.0
  O  O1957  1  0.36495000  0.36495000  0.33333333  1.0
  O  O1958  1  0.36495000  0.36495000  0.66666667  1.0
  O  O1959  1  0.36495000  0.69828333  0.00000000  1.0
  O  O1960  1  0.36495000  0.69828333  0.33333333  1.0
  O  O1961  1  0.36495000  0.69828333  0.66666667  1.0
  O  O1962  1  0.69828333  0.03161667  0.00000000  1.0
  O  O1963  1  0.69828333  0.03161667  0.33333333  1.0
  O  O1964  1  0.69828333  0.03161667  0.66666667  1.0
  O  O1965  1  0.69828333  0.36495000  0.00000000  1.0
  O  O1966  1  0.69828333  0.36495000  0.33333333  1.0
  O  O1967  1  0.69828333  0.36495000  0.66666667  1.0
  O  O1968  1  0.69828333  0.69828333  0.00000000  1.0
  O  O1969  1  0.69828333  0.69828333  0.33333333  1.0
  O  O1970  1  0.69828333  0.69828333  0.66666667  1.0
  O  O1971  1  0.03161667  0.03161667  0.16666667  1.0
  O  O1972  1  0.03161667  0.03161667  0.50000000  1.0
  O  O1973  1  0.03161667  0.03161667  0.83333333  1.0
  O  O1974  1  0.03161667  0.36495000  0.16666667  1.0
  O  O1975  1  0.03161667  0.36495000  0.50000000  1.0
  O  O1976  1  0.03161667  0.36495000  0.83333333  1.0
  O  O1977  1  0.03161667  0.69828333  0.16666667  1.0
  O  O1978  1  0.03161667  0.69828333  0.50000000  1.0
  O  O1979  1  0.03161667  0.69828333  0.83333333  1.0
  O  O1980  1  0.36495000  0.03161667  0.16666667  1.0
  O  O1981  1  0.36495000  0.03161667  0.50000000  1.0
  O  O1982  1  0.36495000  0.03161667  0.83333333  1.0
  O  O1983  1  0.36495000  0.36495000  0.16666667  1.0
  O  O1984  1  0.36495000  0.36495000  0.50000000  1.0
  O  O1985  1  0.36495000  0.36495000  0.83333333  1.0
  O  O1986  1  0.36495000  0.69828333  0.16666667  1.0
  O  O1987  1  0.36495000  0.69828333  0.50000000  1.0
  O  O1988  1  0.36495000  0.69828333  0.83333333  1.0
  O  O1989  1  0.69828333  0.03161667  0.16666667  1.0
  O  O1990  1  0.69828333  0.03161667  0.50000000  1.0
  O  O1991  1  0.69828333  0.03161667  0.83333333  1.0
  O  O1992  1  0.69828333  0.36495000  0.16666667  1.0
  O  O1993  1  0.69828333  0.36495000  0.50000000  1.0
  O  O1994  1  0.69828333  0.36495000  0.83333333  1.0
  O  O1995  1  0.69828333  0.69828333  0.16666667  1.0
  O  O1996  1  0.69828333  0.69828333  0.50000000  1.0
  O  O1997  1  0.69828333  0.69828333  0.83333333  1.0
  O  O1998  1  0.03161667  0.19828333  0.00000000  1.0
  O  O1999  1  0.03161667  0.19828333  0.33333333  1.0
  O  O2000  1  0.03161667  0.19828333  0.66666667  1.0
  O  O2001  1  0.03161667  0.53161667  1.00000000  1.0
  O  O2002  1  0.03161667  0.53161667  0.33333333  1.0
  O  O2003  1  0.03161667  0.53161667  0.66666667  1.0
  O  O2004  1  0.03161667  0.86495000  1.00000000  1.0
  O  O2005  1  0.03161667  0.86495000  0.33333333  1.0
  O  O2006  1  0.03161667  0.86495000  0.66666667  1.0
  O  O2007  1  0.36495000  0.19828333  0.00000000  1.0
  O  O2008  1  0.36495000  0.19828333  0.33333333  1.0
  O  O2009  1  0.36495000  0.19828333  0.66666667  1.0
  O  O2010  1  0.36495000  0.53161667  0.00000000  1.0
  O  O2011  1  0.36495000  0.53161667  0.33333333  1.0
  O  O2012  1  0.36495000  0.53161667  0.66666667  1.0
  O  O2013  1  0.36495000  0.86495000  1.00000000  1.0
  O  O2014  1  0.36495000  0.86495000  0.33333333  1.0
  O  O2015  1  0.36495000  0.86495000  0.66666667  1.0
  O  O2016  1  0.69828333  0.19828333  0.00000000  1.0
  O  O2017  1  0.69828333  0.19828333  0.33333333  1.0
  O  O2018  1  0.69828333  0.19828333  0.66666667  1.0
  O  O2019  1  0.69828333  0.53161667  1.00000000  1.0
  O  O2020  1  0.69828333  0.53161667  0.33333333  1.0
  O  O2021  1  0.69828333  0.53161667  0.66666667  1.0
  O  O2022  1  0.69828333  0.86495000  0.00000000  1.0
  O  O2023  1  0.69828333  0.86495000  0.33333333  1.0
  O  O2024  1  0.69828333  0.86495000  0.66666667  1.0
  O  O2025  1  0.03161667  0.19828333  0.16666667  1.0
  O  O2026  1  0.03161667  0.19828333  0.50000000  1.0
  O  O2027  1  0.03161667  0.19828333  0.83333333  1.0
  O  O2028  1  0.03161667  0.53161667  0.16666667  1.0
  O  O2029  1  0.03161667  0.53161667  0.50000000  1.0
  O  O2030  1  0.03161667  0.53161667  0.83333333  1.0
  O  O2031  1  0.03161667  0.86495000  0.16666667  1.0
  O  O2032  1  0.03161667  0.86495000  0.50000000  1.0
  O  O2033  1  0.03161667  0.86495000  0.83333333  1.0
  O  O2034  1  0.36495000  0.19828333  0.16666667  1.0
  O  O2035  1  0.36495000  0.19828333  0.50000000  1.0
  O  O2036  1  0.36495000  0.19828333  0.83333333  1.0
  O  O2037  1  0.36495000  0.53161667  0.16666667  1.0
  O  O2038  1  0.36495000  0.53161667  0.50000000  1.0
  O  O2039  1  0.36495000  0.53161667  0.83333333  1.0
  O  O2040  1  0.36495000  0.86495000  0.16666667  1.0
  O  O2041  1  0.36495000  0.86495000  0.50000000  1.0
  O  O2042  1  0.36495000  0.86495000  0.83333333  1.0
  O  O2043  1  0.69828333  0.19828333  0.16666667  1.0
  O  O2044  1  0.69828333  0.19828333  0.50000000  1.0
  O  O2045  1  0.69828333  0.19828333  0.83333333  1.0
  O  O2046  1  0.69828333  0.53161667  0.16666667  1.0
  O  O2047  1  0.69828333  0.53161667  0.50000000  1.0
  O  O2048  1  0.69828333  0.53161667  0.83333333  1.0
  O  O2049  1  0.69828333  0.86495000  0.16666667  1.0
  O  O2050  1  0.69828333  0.86495000  0.50000000  1.0
  O  O2051  1  0.69828333  0.86495000  0.83333333  1.0
  O  O2052  1  0.19828333  0.03161667  0.00000000  1.0
  O  O2053  1  0.19828333  0.03161667  0.33333333  1.0
  O  O2054  1  0.19828333  0.03161667  0.66666667  1.0
  O  O2055  1  0.19828333  0.36495000  1.00000000  1.0
  O  O2056  1  0.19828333  0.36495000  0.33333333  1.0
  O  O2057  1  0.19828333  0.36495000  0.66666667  1.0
  O  O2058  1  0.19828333  0.69828333  0.00000000  1.0
  O  O2059  1  0.19828333  0.69828333  0.33333333  1.0
  O  O2060  1  0.19828333  0.69828333  0.66666667  1.0
  O  O2061  1  0.53161667  0.03161667  0.00000000  1.0
  O  O2062  1  0.53161667  0.03161667  0.33333333  1.0
  O  O2063  1  0.53161667  0.03161667  0.66666667  1.0
  O  O2064  1  0.53161667  0.36495000  0.00000000  1.0
  O  O2065  1  0.53161667  0.36495000  0.33333333  1.0
  O  O2066  1  0.53161667  0.36495000  0.66666667  1.0
  O  O2067  1  0.53161667  0.69828333  0.00000000  1.0
  O  O2068  1  0.53161667  0.69828333  0.33333333  1.0
  O  O2069  1  0.53161667  0.69828333  0.66666667  1.0
  O  O2070  1  0.86495000  0.03161667  0.00000000  1.0
  O  O2071  1  0.86495000  0.03161667  0.33333333  1.0
  O  O2072  1  0.86495000  0.03161667  0.66666667  1.0
  O  O2073  1  0.86495000  0.36495000  0.00000000  1.0
  O  O2074  1  0.86495000  0.36495000  0.33333333  1.0
  O  O2075  1  0.86495000  0.36495000  0.66666667  1.0
  O  O2076  1  0.86495000  0.69828333  0.00000000  1.0
  O  O2077  1  0.86495000  0.69828333  0.33333333  1.0
  O  O2078  1  0.86495000  0.69828333  0.66666667  1.0
  O  O2079  1  0.19828333  0.03161667  0.16666667  1.0
  O  O2080  1  0.19828333  0.03161667  0.50000000  1.0
  O  O2081  1  0.19828333  0.03161667  0.83333333  1.0
  O  O2082  1  0.19828333  0.36495000  0.16666667  1.0
  O  O2083  1  0.19828333  0.36495000  0.50000000  1.0
  O  O2084  1  0.19828333  0.36495000  0.83333333  1.0
  O  O2085  1  0.19828333  0.69828333  0.16666667  1.0
  O  O2086  1  0.19828333  0.69828333  0.50000000  1.0
  O  O2087  1  0.19828333  0.69828333  0.83333333  1.0
  O  O2088  1  0.53161667  0.03161667  0.16666667  1.0
  O  O2089  1  0.53161667  0.03161667  0.50000000  1.0
  O  O2090  1  0.53161667  0.03161667  0.83333333  1.0
  O  O2091  1  0.53161667  0.36495000  0.16666667  1.0
  O  O2092  1  0.53161667  0.36495000  0.50000000  1.0
  O  O2093  1  0.53161667  0.36495000  0.83333333  1.0
  O  O2094  1  0.53161667  0.69828333  0.16666667  1.0
  O  O2095  1  0.53161667  0.69828333  0.50000000  1.0
  O  O2096  1  0.53161667  0.69828333  0.83333333  1.0
  O  O2097  1  0.86495000  0.03161667  0.16666667  1.0
  O  O2098  1  0.86495000  0.03161667  0.50000000  1.0
  O  O2099  1  0.86495000  0.03161667  0.83333333  1.0
  O  O2100  1  0.86495000  0.36495000  0.16666667  1.0
  O  O2101  1  0.86495000  0.36495000  0.50000000  1.0
  O  O2102  1  0.86495000  0.36495000  0.83333333  1.0
  O  O2103  1  0.86495000  0.69828333  0.16666667  1.0
  O  O2104  1  0.86495000  0.69828333  0.50000000  1.0
  O  O2105  1  0.86495000  0.69828333  0.83333333  1.0
  O  O2106  1  0.19828333  0.19828333  0.00000000  1.0
  O  O2107  1  0.19828333  0.19828333  0.33333333  1.0
  O  O2108  1  0.19828333  0.19828333  0.66666667  1.0
  O  O2109  1  0.19828333  0.53161667  0.00000000  1.0
  O  O2110  1  0.19828333  0.53161667  0.33333333  1.0
  O  O2111  1  0.19828333  0.53161667  0.66666667  1.0
  O  O2112  1  0.19828333  0.86495000  1.00000000  1.0
  O  O2113  1  0.19828333  0.86495000  0.33333333  1.0
  O  O2114  1  0.19828333  0.86495000  0.66666667  1.0
  O  O2115  1  0.53161667  0.19828333  0.00000000  1.0
  O  O2116  1  0.53161667  0.19828333  0.33333333  1.0
  O  O2117  1  0.53161667  0.19828333  0.66666667  1.0
  O  O2118  1  0.53161667  0.53161667  0.00000000  1.0
  O  O2119  1  0.53161667  0.53161667  0.33333333  1.0
  O  O2120  1  0.53161667  0.53161667  0.66666667  1.0
  O  O2121  1  0.53161667  0.86495000  0.00000000  1.0
  O  O2122  1  0.53161667  0.86495000  0.33333333  1.0
  O  O2123  1  0.53161667  0.86495000  0.66666667  1.0
  O  O2124  1  0.86495000  0.19828333  0.00000000  1.0
  O  O2125  1  0.86495000  0.19828333  0.33333333  1.0
  O  O2126  1  0.86495000  0.19828333  0.66666667  1.0
  O  O2127  1  0.86495000  0.53161667  0.00000000  1.0
  O  O2128  1  0.86495000  0.53161667  0.33333333  1.0
  O  O2129  1  0.86495000  0.53161667  0.66666667  1.0
  O  O2130  1  0.86495000  0.86495000  1.00000000  1.0
  O  O2131  1  0.86495000  0.86495000  0.33333333  1.0
  O  O2132  1  0.86495000  0.86495000  0.66666667  1.0
  O  O2133  1  0.19828333  0.19828333  0.16666667  1.0
  O  O2134  1  0.19828333  0.19828333  0.50000000  1.0
  O  O2135  1  0.19828333  0.19828333  0.83333333  1.0
  O  O2136  1  0.19828333  0.53161667  0.16666667  1.0
  O  O2137  1  0.19828333  0.53161667  0.50000000  1.0
  O  O2138  1  0.19828333  0.53161667  0.83333333  1.0
  O  O2139  1  0.19828333  0.86495000  0.16666667  1.0
  O  O2140  1  0.19828333  0.86495000  0.50000000  1.0
  O  O2141  1  0.19828333  0.86495000  0.83333333  1.0
  O  O2142  1  0.53161667  0.19828333  0.16666667  1.0
  O  O2143  1  0.53161667  0.19828333  0.50000000  1.0
  O  O2144  1  0.53161667  0.19828333  0.83333333  1.0
  O  O2145  1  0.53161667  0.53161667  0.16666667  1.0
  O  O2146  1  0.53161667  0.53161667  0.50000000  1.0
  O  O2147  1  0.53161667  0.53161667  0.83333333  1.0
  O  O2148  1  0.53161667  0.86495000  0.16666667  1.0
  O  O2149  1  0.53161667  0.86495000  0.50000000  1.0
  O  O2150  1  0.53161667  0.86495000  0.83333333  1.0
  O  O2151  1  0.86495000  0.19828333  0.16666667  1.0
  O  O2152  1  0.86495000  0.19828333  0.50000000  1.0
  O  O2153  1  0.86495000  0.19828333  0.83333333  1.0
  O  O2154  1  0.86495000  0.53161667  0.16666667  1.0
  O  O2155  1  0.86495000  0.53161667  0.50000000  1.0
  O  O2156  1  0.86495000  0.53161667  0.83333333  1.0
  O  O2157  1  0.86495000  0.86495000  0.16666667  1.0
  O  O2158  1  0.86495000  0.86495000  0.50000000  1.0
  O  O2159  1  0.86495000  0.86495000  0.83333333  1.0
  O  O2160  1  0.13505000  0.03161667  0.00000000  1.0
  O  O2161  1  0.13505000  0.03161667  0.33333333  1.0
  O  O2162  1  0.13505000  0.03161667  0.66666667  1.0
  O  O2163  1  0.13505000  0.36495000  1.00000000  1.0
  O  O2164  1  0.13505000  0.36495000  0.33333333  1.0
  O  O2165  1  0.13505000  0.36495000  0.66666667  1.0
  O  O2166  1  0.13505000  0.69828333  1.00000000  1.0
  O  O2167  1  0.13505000  0.69828333  0.33333333  1.0
  O  O2168  1  0.13505000  0.69828333  0.66666667  1.0
  O  O2169  1  0.46838333  0.03161667  0.00000000  1.0
  O  O2170  1  0.46838333  0.03161667  0.33333333  1.0
  O  O2171  1  0.46838333  0.03161667  0.66666667  1.0
  O  O2172  1  0.46838333  0.36495000  1.00000000  1.0
  O  O2173  1  0.46838333  0.36495000  0.33333333  1.0
  O  O2174  1  0.46838333  0.36495000  0.66666667  1.0
  O  O2175  1  0.46838333  0.69828333  0.00000000  1.0
  O  O2176  1  0.46838333  0.69828333  0.33333333  1.0
  O  O2177  1  0.46838333  0.69828333  0.66666667  1.0
  O  O2178  1  0.80171667  0.03161667  1.00000000  1.0
  O  O2179  1  0.80171667  0.03161667  0.33333333  1.0
  O  O2180  1  0.80171667  0.03161667  0.66666667  1.0
  O  O2181  1  0.80171667  0.36495000  0.00000000  1.0
  O  O2182  1  0.80171667  0.36495000  0.33333333  1.0
  O  O2183  1  0.80171667  0.36495000  0.66666667  1.0
  O  O2184  1  0.80171667  0.69828333  0.00000000  1.0
  O  O2185  1  0.80171667  0.69828333  0.33333333  1.0
  O  O2186  1  0.80171667  0.69828333  0.66666667  1.0
  O  O2187  1  0.13505000  0.03161667  0.16666667  1.0
  O  O2188  1  0.13505000  0.03161667  0.50000000  1.0
  O  O2189  1  0.13505000  0.03161667  0.83333333  1.0
  O  O2190  1  0.13505000  0.36495000  0.16666667  1.0
  O  O2191  1  0.13505000  0.36495000  0.50000000  1.0
  O  O2192  1  0.13505000  0.36495000  0.83333333  1.0
  O  O2193  1  0.13505000  0.69828333  0.16666667  1.0
  O  O2194  1  0.13505000  0.69828333  0.50000000  1.0
  O  O2195  1  0.13505000  0.69828333  0.83333333  1.0
  O  O2196  1  0.46838333  0.03161667  0.16666667  1.0
  O  O2197  1  0.46838333  0.03161667  0.50000000  1.0
  O  O2198  1  0.46838333  0.03161667  0.83333333  1.0
  O  O2199  1  0.46838333  0.36495000  0.16666667  1.0
  O  O2200  1  0.46838333  0.36495000  0.50000000  1.0
  O  O2201  1  0.46838333  0.36495000  0.83333333  1.0
  O  O2202  1  0.46838333  0.69828333  0.16666667  1.0
  O  O2203  1  0.46838333  0.69828333  0.50000000  1.0
  O  O2204  1  0.46838333  0.69828333  0.83333333  1.0
  O  O2205  1  0.80171667  0.03161667  0.16666667  1.0
  O  O2206  1  0.80171667  0.03161667  0.50000000  1.0
  O  O2207  1  0.80171667  0.03161667  0.83333333  1.0
  O  O2208  1  0.80171667  0.36495000  0.16666667  1.0
  O  O2209  1  0.80171667  0.36495000  0.50000000  1.0
  O  O2210  1  0.80171667  0.36495000  0.83333333  1.0
  O  O2211  1  0.80171667  0.69828333  0.16666667  1.0
  O  O2212  1  0.80171667  0.69828333  0.50000000  1.0
  O  O2213  1  0.80171667  0.69828333  0.83333333  1.0
  O  O2214  1  0.13505000  0.19828333  0.00000000  1.0
  O  O2215  1  0.13505000  0.19828333  0.33333333  1.0
  O  O2216  1  0.13505000  0.19828333  0.66666667  1.0
  O  O2217  1  0.13505000  0.53161667  0.00000000  1.0
  O  O2218  1  0.13505000  0.53161667  0.33333333  1.0
  O  O2219  1  0.13505000  0.53161667  0.66666667  1.0
  O  O2220  1  0.13505000  0.86495000  1.00000000  1.0
  O  O2221  1  0.13505000  0.86495000  0.33333333  1.0
  O  O2222  1  0.13505000  0.86495000  0.66666667  1.0
  O  O2223  1  0.46838333  0.19828333  0.00000000  1.0
  O  O2224  1  0.46838333  0.19828333  0.33333333  1.0
  O  O2225  1  0.46838333  0.19828333  0.66666667  1.0
  O  O2226  1  0.46838333  0.53161667  0.00000000  1.0
  O  O2227  1  0.46838333  0.53161667  0.33333333  1.0
  O  O2228  1  0.46838333  0.53161667  0.66666667  1.0
  O  O2229  1  0.46838333  0.86495000  0.00000000  1.0
  O  O2230  1  0.46838333  0.86495000  0.33333333  1.0
  O  O2231  1  0.46838333  0.86495000  0.66666667  1.0
  O  O2232  1  0.80171667  0.19828333  0.00000000  1.0
  O  O2233  1  0.80171667  0.19828333  0.33333333  1.0
  O  O2234  1  0.80171667  0.19828333  0.66666667  1.0
  O  O2235  1  0.80171667  0.53161667  0.00000000  1.0
  O  O2236  1  0.80171667  0.53161667  0.33333333  1.0
  O  O2237  1  0.80171667  0.53161667  0.66666667  1.0
  O  O2238  1  0.80171667  0.86495000  1.00000000  1.0
  O  O2239  1  0.80171667  0.86495000  0.33333333  1.0
  O  O2240  1  0.80171667  0.86495000  0.66666667  1.0
  O  O2241  1  0.13505000  0.19828333  0.16666667  1.0
  O  O2242  1  0.13505000  0.19828333  0.50000000  1.0
  O  O2243  1  0.13505000  0.19828333  0.83333333  1.0
  O  O2244  1  0.13505000  0.53161667  0.16666667  1.0
  O  O2245  1  0.13505000  0.53161667  0.50000000  1.0
  O  O2246  1  0.13505000  0.53161667  0.83333333  1.0
  O  O2247  1  0.13505000  0.86495000  0.16666667  1.0
  O  O2248  1  0.13505000  0.86495000  0.50000000  1.0
  O  O2249  1  0.13505000  0.86495000  0.83333333  1.0
  O  O2250  1  0.46838333  0.19828333  0.16666667  1.0
  O  O2251  1  0.46838333  0.19828333  0.50000000  1.0
  O  O2252  1  0.46838333  0.19828333  0.83333333  1.0
  O  O2253  1  0.46838333  0.53161667  0.16666667  1.0
  O  O2254  1  0.46838333  0.53161667  0.50000000  1.0
  O  O2255  1  0.46838333  0.53161667  0.83333333  1.0
  O  O2256  1  0.46838333  0.86495000  0.16666667  1.0
  O  O2257  1  0.46838333  0.86495000  0.50000000  1.0
  O  O2258  1  0.46838333  0.86495000  0.83333333  1.0
  O  O2259  1  0.80171667  0.19828333  0.16666667  1.0
  O  O2260  1  0.80171667  0.19828333  0.50000000  1.0
  O  O2261  1  0.80171667  0.19828333  0.83333333  1.0
  O  O2262  1  0.80171667  0.53161667  0.16666667  1.0
  O  O2263  1  0.80171667  0.53161667  0.50000000  1.0
  O  O2264  1  0.80171667  0.53161667  0.83333333  1.0
  O  O2265  1  0.80171667  0.86495000  0.16666667  1.0
  O  O2266  1  0.80171667  0.86495000  0.50000000  1.0
  O  O2267  1  0.80171667  0.86495000  0.83333333  1.0
  O  O2268  1  0.30171667  0.03161667  0.00000000  1.0
  O  O2269  1  0.30171667  0.03161667  0.33333333  1.0
  O  O2270  1  0.30171667  0.03161667  0.66666667  1.0
  O  O2271  1  0.30171667  0.36495000  0.00000000  1.0
  O  O2272  1  0.30171667  0.36495000  0.33333333  1.0
  O  O2273  1  0.30171667  0.36495000  0.66666667  1.0
  O  O2274  1  0.30171667  0.69828333  1.00000000  1.0
  O  O2275  1  0.30171667  0.69828333  0.33333333  1.0
  O  O2276  1  0.30171667  0.69828333  0.66666667  1.0
  O  O2277  1  0.63505000  0.03161667  0.00000000  1.0
  O  O2278  1  0.63505000  0.03161667  0.33333333  1.0
  O  O2279  1  0.63505000  0.03161667  0.66666667  1.0
  O  O2280  1  0.63505000  0.36495000  0.00000000  1.0
  O  O2281  1  0.63505000  0.36495000  0.33333333  1.0
  O  O2282  1  0.63505000  0.36495000  0.66666667  1.0
  O  O2283  1  0.63505000  0.69828333  0.00000000  1.0
  O  O2284  1  0.63505000  0.69828333  0.33333333  1.0
  O  O2285  1  0.63505000  0.69828333  0.66666667  1.0
  O  O2286  1  0.96838333  0.03161667  0.00000000  1.0
  O  O2287  1  0.96838333  0.03161667  0.33333333  1.0
  O  O2288  1  0.96838333  0.03161667  0.66666667  1.0
  O  O2289  1  0.96838333  0.36495000  0.00000000  1.0
  O  O2290  1  0.96838333  0.36495000  0.33333333  1.0
  O  O2291  1  0.96838333  0.36495000  0.66666667  1.0
  O  O2292  1  0.96838333  0.69828333  1.00000000  1.0
  O  O2293  1  0.96838333  0.69828333  0.33333333  1.0
  O  O2294  1  0.96838333  0.69828333  0.66666667  1.0
  O  O2295  1  0.30171667  0.03161667  0.16666667  1.0
  O  O2296  1  0.30171667  0.03161667  0.50000000  1.0
  O  O2297  1  0.30171667  0.03161667  0.83333333  1.0
  O  O2298  1  0.30171667  0.36495000  0.16666667  1.0
  O  O2299  1  0.30171667  0.36495000  0.50000000  1.0
  O  O2300  1  0.30171667  0.36495000  0.83333333  1.0
  O  O2301  1  0.30171667  0.69828333  0.16666667  1.0
  O  O2302  1  0.30171667  0.69828333  0.50000000  1.0
  O  O2303  1  0.30171667  0.69828333  0.83333333  1.0
  O  O2304  1  0.63505000  0.03161667  0.16666667  1.0
  O  O2305  1  0.63505000  0.03161667  0.50000000  1.0
  O  O2306  1  0.63505000  0.03161667  0.83333333  1.0
  O  O2307  1  0.63505000  0.36495000  0.16666667  1.0
  O  O2308  1  0.63505000  0.36495000  0.50000000  1.0
  O  O2309  1  0.63505000  0.36495000  0.83333333  1.0
  O  O2310  1  0.63505000  0.69828333  0.16666667  1.0
  O  O2311  1  0.63505000  0.69828333  0.50000000  1.0
  O  O2312  1  0.63505000  0.69828333  0.83333333  1.0
  O  O2313  1  0.96838333  0.03161667  0.16666667  1.0
  O  O2314  1  0.96838333  0.03161667  0.50000000  1.0
  O  O2315  1  0.96838333  0.03161667  0.83333333  1.0
  O  O2316  1  0.96838333  0.36495000  0.16666667  1.0
  O  O2317  1  0.96838333  0.36495000  0.50000000  1.0
  O  O2318  1  0.96838333  0.36495000  0.83333333  1.0
  O  O2319  1  0.96838333  0.69828333  0.16666667  1.0
  O  O2320  1  0.96838333  0.69828333  0.50000000  1.0
  O  O2321  1  0.96838333  0.69828333  0.83333333  1.0
  O  O2322  1  0.30171667  0.19828333  1.00000000  1.0
  O  O2323  1  0.30171667  0.19828333  0.33333333  1.0
  O  O2324  1  0.30171667  0.19828333  0.66666667  1.0
  O  O2325  1  0.30171667  0.53161667  1.00000000  1.0
  O  O2326  1  0.30171667  0.53161667  0.33333333  1.0
  O  O2327  1  0.30171667  0.53161667  0.66666667  1.0
  O  O2328  1  0.30171667  0.86495000  0.00000000  1.0
  O  O2329  1  0.30171667  0.86495000  0.33333333  1.0
  O  O2330  1  0.30171667  0.86495000  0.66666667  1.0
  O  O2331  1  0.63505000  0.19828333  1.00000000  1.0
  O  O2332  1  0.63505000  0.19828333  0.33333333  1.0
  O  O2333  1  0.63505000  0.19828333  0.66666667  1.0
  O  O2334  1  0.63505000  0.53161667  0.00000000  1.0
  O  O2335  1  0.63505000  0.53161667  0.33333333  1.0
  O  O2336  1  0.63505000  0.53161667  0.66666667  1.0
  O  O2337  1  0.63505000  0.86495000  1.00000000  1.0
  O  O2338  1  0.63505000  0.86495000  0.33333333  1.0
  O  O2339  1  0.63505000  0.86495000  0.66666667  1.0
  O  O2340  1  0.96838333  0.19828333  0.00000000  1.0
  O  O2341  1  0.96838333  0.19828333  0.33333333  1.0
  O  O2342  1  0.96838333  0.19828333  0.66666667  1.0
  O  O2343  1  0.96838333  0.53161667  1.00000000  1.0
  O  O2344  1  0.96838333  0.53161667  0.33333333  1.0
  O  O2345  1  0.96838333  0.53161667  0.66666667  1.0
  O  O2346  1  0.96838333  0.86495000  0.00000000  1.0
  O  O2347  1  0.96838333  0.86495000  0.33333333  1.0
  O  O2348  1  0.96838333  0.86495000  0.66666667  1.0
  O  O2349  1  0.30171667  0.19828333  0.16666667  1.0
  O  O2350  1  0.30171667  0.19828333  0.50000000  1.0
  O  O2351  1  0.30171667  0.19828333  0.83333333  1.0
  O  O2352  1  0.30171667  0.53161667  0.16666667  1.0
  O  O2353  1  0.30171667  0.53161667  0.50000000  1.0
  O  O2354  1  0.30171667  0.53161667  0.83333333  1.0
  O  O2355  1  0.30171667  0.86495000  0.16666667  1.0
  O  O2356  1  0.30171667  0.86495000  0.50000000  1.0
  O  O2357  1  0.30171667  0.86495000  0.83333333  1.0
  O  O2358  1  0.63505000  0.19828333  0.16666667  1.0
  O  O2359  1  0.63505000  0.19828333  0.50000000  1.0
  O  O2360  1  0.63505000  0.19828333  0.83333333  1.0
  O  O2361  1  0.63505000  0.53161667  0.16666667  1.0
  O  O2362  1  0.63505000  0.53161667  0.50000000  1.0
  O  O2363  1  0.63505000  0.53161667  0.83333333  1.0
  O  O2364  1  0.63505000  0.86495000  0.16666667  1.0
  O  O2365  1  0.63505000  0.86495000  0.50000000  1.0
  O  O2366  1  0.63505000  0.86495000  0.83333333  1.0
  O  O2367  1  0.96838333  0.19828333  0.16666667  1.0
  O  O2368  1  0.96838333  0.19828333  0.50000000  1.0
  O  O2369  1  0.96838333  0.19828333  0.83333333  1.0
  O  O2370  1  0.96838333  0.53161667  0.16666667  1.0
  O  O2371  1  0.96838333  0.53161667  0.50000000  1.0
  O  O2372  1  0.96838333  0.53161667  0.83333333  1.0
  O  O2373  1  0.96838333  0.86495000  0.16666667  1.0
  O  O2374  1  0.96838333  0.86495000  0.50000000  1.0
  O  O2375  1  0.96838333  0.86495000  0.83333333  1.0
  O  O2376  1  0.13505000  0.13505000  0.00000000  1.0
  O  O2377  1  0.13505000  0.13505000  0.33333333  1.0
  O  O2378  1  0.13505000  0.13505000  0.66666667  1.0
  O  O2379  1  0.13505000  0.46838333  0.00000000  1.0
  O  O2380  1  0.13505000  0.46838333  0.33333333  1.0
  O  O2381  1  0.13505000  0.46838333  0.66666667  1.0
  O  O2382  1  0.13505000  0.80171667  1.00000000  1.0
  O  O2383  1  0.13505000  0.80171667  0.33333333  1.0
  O  O2384  1  0.13505000  0.80171667  0.66666667  1.0
  O  O2385  1  0.46838333  0.13505000  0.00000000  1.0
  O  O2386  1  0.46838333  0.13505000  0.33333333  1.0
  O  O2387  1  0.46838333  0.13505000  0.66666667  1.0
  O  O2388  1  0.46838333  0.46838333  1.00000000  1.0
  O  O2389  1  0.46838333  0.46838333  0.33333333  1.0
  O  O2390  1  0.46838333  0.46838333  0.66666667  1.0
  O  O2391  1  0.46838333  0.80171667  1.00000000  1.0
  O  O2392  1  0.46838333  0.80171667  0.33333333  1.0
  O  O2393  1  0.46838333  0.80171667  0.66666667  1.0
  O  O2394  1  0.80171667  0.13505000  0.00000000  1.0
  O  O2395  1  0.80171667  0.13505000  0.33333333  1.0
  O  O2396  1  0.80171667  0.13505000  0.66666667  1.0
  O  O2397  1  0.80171667  0.46838333  1.00000000  1.0
  O  O2398  1  0.80171667  0.46838333  0.33333333  1.0
  O  O2399  1  0.80171667  0.46838333  0.66666667  1.0
  O  O2400  1  0.80171667  0.80171667  0.00000000  1.0
  O  O2401  1  0.80171667  0.80171667  0.33333333  1.0
  O  O2402  1  0.80171667  0.80171667  0.66666667  1.0
  O  O2403  1  0.13505000  0.13505000  0.16666667  1.0
  O  O2404  1  0.13505000  0.13505000  0.50000000  1.0
  O  O2405  1  0.13505000  0.13505000  0.83333333  1.0
  O  O2406  1  0.13505000  0.46838333  0.16666667  1.0
  O  O2407  1  0.13505000  0.46838333  0.50000000  1.0
  O  O2408  1  0.13505000  0.46838333  0.83333333  1.0
  O  O2409  1  0.13505000  0.80171667  0.16666667  1.0
  O  O2410  1  0.13505000  0.80171667  0.50000000  1.0
  O  O2411  1  0.13505000  0.80171667  0.83333333  1.0
  O  O2412  1  0.46838333  0.13505000  0.16666667  1.0
  O  O2413  1  0.46838333  0.13505000  0.50000000  1.0
  O  O2414  1  0.46838333  0.13505000  0.83333333  1.0
  O  O2415  1  0.46838333  0.46838333  0.16666667  1.0
  O  O2416  1  0.46838333  0.46838333  0.50000000  1.0
  O  O2417  1  0.46838333  0.46838333  0.83333333  1.0
  O  O2418  1  0.46838333  0.80171667  0.16666667  1.0
  O  O2419  1  0.46838333  0.80171667  0.50000000  1.0
  O  O2420  1  0.46838333  0.80171667  0.83333333  1.0
  O  O2421  1  0.80171667  0.13505000  0.16666667  1.0
  O  O2422  1  0.80171667  0.13505000  0.50000000  1.0
  O  O2423  1  0.80171667  0.13505000  0.83333333  1.0
  O  O2424  1  0.80171667  0.46838333  0.16666667  1.0
  O  O2425  1  0.80171667  0.46838333  0.50000000  1.0
  O  O2426  1  0.80171667  0.46838333  0.83333333  1.0
  O  O2427  1  0.80171667  0.80171667  0.16666667  1.0
  O  O2428  1  0.80171667  0.80171667  0.50000000  1.0
  O  O2429  1  0.80171667  0.80171667  0.83333333  1.0
  O  O2430  1  0.13505000  0.30171667  1.00000000  1.0
  O  O2431  1  0.13505000  0.30171667  0.33333333  1.0
  O  O2432  1  0.13505000  0.30171667  0.66666667  1.0
  O  O2433  1  0.13505000  0.63505000  1.00000000  1.0
  O  O2434  1  0.13505000  0.63505000  0.33333333  1.0
  O  O2435  1  0.13505000  0.63505000  0.66666667  1.0
  O  O2436  1  0.13505000  0.96838333  0.00000000  1.0
  O  O2437  1  0.13505000  0.96838333  0.33333333  1.0
  O  O2438  1  0.13505000  0.96838333  0.66666667  1.0
  O  O2439  1  0.46838333  0.30171667  0.00000000  1.0
  O  O2440  1  0.46838333  0.30171667  0.33333333  1.0
  O  O2441  1  0.46838333  0.30171667  0.66666667  1.0
  O  O2442  1  0.46838333  0.63505000  0.00000000  1.0
  O  O2443  1  0.46838333  0.63505000  0.33333333  1.0
  O  O2444  1  0.46838333  0.63505000  0.66666667  1.0
  O  O2445  1  0.46838333  0.96838333  1.00000000  1.0
  O  O2446  1  0.46838333  0.96838333  0.33333333  1.0
  O  O2447  1  0.46838333  0.96838333  0.66666667  1.0
  O  O2448  1  0.80171667  0.30171667  0.00000000  1.0
  O  O2449  1  0.80171667  0.30171667  0.33333333  1.0
  O  O2450  1  0.80171667  0.30171667  0.66666667  1.0
  O  O2451  1  0.80171667  0.63505000  1.00000000  1.0
  O  O2452  1  0.80171667  0.63505000  0.33333333  1.0
  O  O2453  1  0.80171667  0.63505000  0.66666667  1.0
  O  O2454  1  0.80171667  0.96838333  0.00000000  1.0
  O  O2455  1  0.80171667  0.96838333  0.33333333  1.0
  O  O2456  1  0.80171667  0.96838333  0.66666667  1.0
  O  O2457  1  0.13505000  0.30171667  0.16666667  1.0
  O  O2458  1  0.13505000  0.30171667  0.50000000  1.0
  O  O2459  1  0.13505000  0.30171667  0.83333333  1.0
  O  O2460  1  0.13505000  0.63505000  0.16666667  1.0
  O  O2461  1  0.13505000  0.63505000  0.50000000  1.0
  O  O2462  1  0.13505000  0.63505000  0.83333333  1.0
  O  O2463  1  0.13505000  0.96838333  0.16666667  1.0
  O  O2464  1  0.13505000  0.96838333  0.50000000  1.0
  O  O2465  1  0.13505000  0.96838333  0.83333333  1.0
  O  O2466  1  0.46838333  0.30171667  0.16666667  1.0
  O  O2467  1  0.46838333  0.30171667  0.50000000  1.0
  O  O2468  1  0.46838333  0.30171667  0.83333333  1.0
  O  O2469  1  0.46838333  0.63505000  0.16666667  1.0
  O  O2470  1  0.46838333  0.63505000  0.50000000  1.0
  O  O2471  1  0.46838333  0.63505000  0.83333333  1.0
  O  O2472  1  0.46838333  0.96838333  0.16666667  1.0
  O  O2473  1  0.46838333  0.96838333  0.50000000  1.0
  O  O2474  1  0.46838333  0.96838333  0.83333333  1.0
  O  O2475  1  0.80171667  0.30171667  0.16666667  1.0
  O  O2476  1  0.80171667  0.30171667  0.50000000  1.0
  O  O2477  1  0.80171667  0.30171667  0.83333333  1.0
  O  O2478  1  0.80171667  0.63505000  0.16666667  1.0
  O  O2479  1  0.80171667  0.63505000  0.50000000  1.0
  O  O2480  1  0.80171667  0.63505000  0.83333333  1.0
  O  O2481  1  0.80171667  0.96838333  0.16666667  1.0
  O  O2482  1  0.80171667  0.96838333  0.50000000  1.0
  O  O2483  1  0.80171667  0.96838333  0.83333333  1.0
  O  O2484  1  0.30171667  0.13505000  1.00000000  1.0
  O  O2485  1  0.30171667  0.13505000  0.33333333  1.0
  O  O2486  1  0.30171667  0.13505000  0.66666667  1.0
  O  O2487  1  0.30171667  0.46838333  1.00000000  1.0
  O  O2488  1  0.30171667  0.46838333  0.33333333  1.0
  O  O2489  1  0.30171667  0.46838333  0.66666667  1.0
  O  O2490  1  0.30171667  0.80171667  1.00000000  1.0
  O  O2491  1  0.30171667  0.80171667  0.33333333  1.0
  O  O2492  1  0.30171667  0.80171667  0.66666667  1.0
  O  O2493  1  0.63505000  0.13505000  0.00000000  1.0
  O  O2494  1  0.63505000  0.13505000  0.33333333  1.0
  O  O2495  1  0.63505000  0.13505000  0.66666667  1.0
  O  O2496  1  0.63505000  0.46838333  0.00000000  1.0
  O  O2497  1  0.63505000  0.46838333  0.33333333  1.0
  O  O2498  1  0.63505000  0.46838333  0.66666667  1.0
  O  O2499  1  0.63505000  0.80171667  1.00000000  1.0
  O  O2500  1  0.63505000  0.80171667  0.33333333  1.0
  O  O2501  1  0.63505000  0.80171667  0.66666667  1.0
  O  O2502  1  0.96838333  0.13505000  0.00000000  1.0
  O  O2503  1  0.96838333  0.13505000  0.33333333  1.0
  O  O2504  1  0.96838333  0.13505000  0.66666667  1.0
  O  O2505  1  0.96838333  0.46838333  1.00000000  1.0
  O  O2506  1  0.96838333  0.46838333  0.33333333  1.0
  O  O2507  1  0.96838333  0.46838333  0.66666667  1.0
  O  O2508  1  0.96838333  0.80171667  1.00000000  1.0
  O  O2509  1  0.96838333  0.80171667  0.33333333  1.0
  O  O2510  1  0.96838333  0.80171667  0.66666667  1.0
  O  O2511  1  0.30171667  0.13505000  0.16666667  1.0
  O  O2512  1  0.30171667  0.13505000  0.50000000  1.0
  O  O2513  1  0.30171667  0.13505000  0.83333333  1.0
  O  O2514  1  0.30171667  0.46838333  0.16666667  1.0
  O  O2515  1  0.30171667  0.46838333  0.50000000  1.0
  O  O2516  1  0.30171667  0.46838333  0.83333333  1.0
  O  O2517  1  0.30171667  0.80171667  0.16666667  1.0
  O  O2518  1  0.30171667  0.80171667  0.50000000  1.0
  O  O2519  1  0.30171667  0.80171667  0.83333333  1.0
  O  O2520  1  0.63505000  0.13505000  0.16666667  1.0
  O  O2521  1  0.63505000  0.13505000  0.50000000  1.0
  O  O2522  1  0.63505000  0.13505000  0.83333333  1.0
  O  O2523  1  0.63505000  0.46838333  0.16666667  1.0
  O  O2524  1  0.63505000  0.46838333  0.50000000  1.0
  O  O2525  1  0.63505000  0.46838333  0.83333333  1.0
  O  O2526  1  0.63505000  0.80171667  0.16666667  1.0
  O  O2527  1  0.63505000  0.80171667  0.50000000  1.0
  O  O2528  1  0.63505000  0.80171667  0.83333333  1.0
  O  O2529  1  0.96838333  0.13505000  0.16666667  1.0
  O  O2530  1  0.96838333  0.13505000  0.50000000  1.0
  O  O2531  1  0.96838333  0.13505000  0.83333333  1.0
  O  O2532  1  0.96838333  0.46838333  0.16666667  1.0
  O  O2533  1  0.96838333  0.46838333  0.50000000  1.0
  O  O2534  1  0.96838333  0.46838333  0.83333333  1.0
  O  O2535  1  0.96838333  0.80171667  0.16666667  1.0
  O  O2536  1  0.96838333  0.80171667  0.50000000  1.0
  O  O2537  1  0.96838333  0.80171667  0.83333333  1.0
  O  O2538  1  0.30171667  0.30171667  1.00000000  1.0
  O  O2539  1  0.30171667  0.30171667  0.33333333  1.0
  O  O2540  1  0.30171667  0.30171667  0.66666667  1.0
  O  O2541  1  0.30171667  0.63505000  1.00000000  1.0
  O  O2542  1  0.30171667  0.63505000  0.33333333  1.0
  O  O2543  1  0.30171667  0.63505000  0.66666667  1.0
  O  O2544  1  0.30171667  0.96838333  1.00000000  1.0
  O  O2545  1  0.30171667  0.96838333  0.33333333  1.0
  O  O2546  1  0.30171667  0.96838333  0.66666667  1.0
  O  O2547  1  0.63505000  0.30171667  1.00000000  1.0
  O  O2548  1  0.63505000  0.30171667  0.33333333  1.0
  O  O2549  1  0.63505000  0.30171667  0.66666667  1.0
  O  O2550  1  0.63505000  0.63505000  1.00000000  1.0
  O  O2551  1  0.63505000  0.63505000  0.33333333  1.0
  O  O2552  1  0.63505000  0.63505000  0.66666667  1.0
  O  O2553  1  0.63505000  0.96838333  0.00000000  1.0
  O  O2554  1  0.63505000  0.96838333  0.33333333  1.0
  O  O2555  1  0.63505000  0.96838333  0.66666667  1.0
  O  O2556  1  0.96838333  0.30171667  1.00000000  1.0
  O  O2557  1  0.96838333  0.30171667  0.33333333  1.0
  O  O2558  1  0.96838333  0.30171667  0.66666667  1.0
  O  O2559  1  0.96838333  0.63505000  1.00000000  1.0
  O  O2560  1  0.96838333  0.63505000  0.33333333  1.0
  O  O2561  1  0.96838333  0.63505000  0.66666667  1.0
  O  O2562  1  0.96838333  0.96838333  0.00000000  1.0
  O  O2563  1  0.96838333  0.96838333  0.33333333  1.0
  O  O2564  1  0.96838333  0.96838333  0.66666667  1.0
  O  O2565  1  0.30171667  0.30171667  0.16666667  1.0
  O  O2566  1  0.30171667  0.30171667  0.50000000  1.0
  O  O2567  1  0.30171667  0.30171667  0.83333333  1.0
  O  O2568  1  0.30171667  0.63505000  0.16666667  1.0
  O  O2569  1  0.30171667  0.63505000  0.50000000  1.0
  O  O2570  1  0.30171667  0.63505000  0.83333333  1.0
  O  O2571  1  0.30171667  0.96838333  0.16666667  1.0
  O  O2572  1  0.30171667  0.96838333  0.50000000  1.0
  O  O2573  1  0.30171667  0.96838333  0.83333333  1.0
  O  O2574  1  0.63505000  0.30171667  0.16666667  1.0
  O  O2575  1  0.63505000  0.30171667  0.50000000  1.0
  O  O2576  1  0.63505000  0.30171667  0.83333333  1.0
  O  O2577  1  0.63505000  0.63505000  0.16666667  1.0
  O  O2578  1  0.63505000  0.63505000  0.50000000  1.0
  O  O2579  1  0.63505000  0.63505000  0.83333333  1.0
  O  O2580  1  0.63505000  0.96838333  0.16666667  1.0
  O  O2581  1  0.63505000  0.96838333  0.50000000  1.0
  O  O2582  1  0.63505000  0.96838333  0.83333333  1.0
  O  O2583  1  0.96838333  0.30171667  0.16666667  1.0
  O  O2584  1  0.96838333  0.30171667  0.50000000  1.0
  O  O2585  1  0.96838333  0.30171667  0.83333333  1.0
  O  O2586  1  0.96838333  0.63505000  0.16666667  1.0
  O  O2587  1  0.96838333  0.63505000  0.50000000  1.0
  O  O2588  1  0.96838333  0.63505000  0.83333333  1.0
  O  O2589  1  0.96838333  0.96838333  0.16666667  1.0
  O  O2590  1  0.96838333  0.96838333  0.50000000  1.0
  O  O2591  1  0.96838333  0.96838333  0.83333333  1.0
  O  O2592  1  0.03161667  0.13505000  1.00000000  1.0
  O  O2593  1  0.03161667  0.13505000  0.33333333  1.0
  O  O2594  1  0.03161667  0.13505000  0.66666667  1.0
  O  O2595  1  0.03161667  0.46838333  1.00000000  1.0
  O  O2596  1  0.03161667  0.46838333  0.33333333  1.0
  O  O2597  1  0.03161667  0.46838333  0.66666667  1.0
  O  O2598  1  0.03161667  0.80171667  1.00000000  1.0
  O  O2599  1  0.03161667  0.80171667  0.33333333  1.0
  O  O2600  1  0.03161667  0.80171667  0.66666667  1.0
  O  O2601  1  0.36495000  0.13505000  0.00000000  1.0
  O  O2602  1  0.36495000  0.13505000  0.33333333  1.0
  O  O2603  1  0.36495000  0.13505000  0.66666667  1.0
  O  O2604  1  0.36495000  0.46838333  1.00000000  1.0
  O  O2605  1  0.36495000  0.46838333  0.33333333  1.0
  O  O2606  1  0.36495000  0.46838333  0.66666667  1.0
  O  O2607  1  0.36495000  0.80171667  0.00000000  1.0
  O  O2608  1  0.36495000  0.80171667  0.33333333  1.0
  O  O2609  1  0.36495000  0.80171667  0.66666667  1.0
  O  O2610  1  0.69828333  0.13505000  0.00000000  1.0
  O  O2611  1  0.69828333  0.13505000  0.33333333  1.0
  O  O2612  1  0.69828333  0.13505000  0.66666667  1.0
  O  O2613  1  0.69828333  0.46838333  0.00000000  1.0
  O  O2614  1  0.69828333  0.46838333  0.33333333  1.0
  O  O2615  1  0.69828333  0.46838333  0.66666667  1.0
  O  O2616  1  0.69828333  0.80171667  1.00000000  1.0
  O  O2617  1  0.69828333  0.80171667  0.33333333  1.0
  O  O2618  1  0.69828333  0.80171667  0.66666667  1.0
  O  O2619  1  0.03161667  0.13505000  0.16666667  1.0
  O  O2620  1  0.03161667  0.13505000  0.50000000  1.0
  O  O2621  1  0.03161667  0.13505000  0.83333333  1.0
  O  O2622  1  0.03161667  0.46838333  0.16666667  1.0
  O  O2623  1  0.03161667  0.46838333  0.50000000  1.0
  O  O2624  1  0.03161667  0.46838333  0.83333333  1.0
  O  O2625  1  0.03161667  0.80171667  0.16666667  1.0
  O  O2626  1  0.03161667  0.80171667  0.50000000  1.0
  O  O2627  1  0.03161667  0.80171667  0.83333333  1.0
  O  O2628  1  0.36495000  0.13505000  0.16666667  1.0
  O  O2629  1  0.36495000  0.13505000  0.50000000  1.0
  O  O2630  1  0.36495000  0.13505000  0.83333333  1.0
  O  O2631  1  0.36495000  0.46838333  0.16666667  1.0
  O  O2632  1  0.36495000  0.46838333  0.50000000  1.0
  O  O2633  1  0.36495000  0.46838333  0.83333333  1.0
  O  O2634  1  0.36495000  0.80171667  0.16666667  1.0
  O  O2635  1  0.36495000  0.80171667  0.50000000  1.0
  O  O2636  1  0.36495000  0.80171667  0.83333333  1.0
  O  O2637  1  0.69828333  0.13505000  0.16666667  1.0
  O  O2638  1  0.69828333  0.13505000  0.50000000  1.0
  O  O2639  1  0.69828333  0.13505000  0.83333333  1.0
  O  O2640  1  0.69828333  0.46838333  0.16666667  1.0
  O  O2641  1  0.69828333  0.46838333  0.50000000  1.0
  O  O2642  1  0.69828333  0.46838333  0.83333333  1.0
  O  O2643  1  0.69828333  0.80171667  0.16666667  1.0
  O  O2644  1  0.69828333  0.80171667  0.50000000  1.0
  O  O2645  1  0.69828333  0.80171667  0.83333333  1.0
  O  O2646  1  0.03161667  0.30171667  1.00000000  1.0
  O  O2647  1  0.03161667  0.30171667  0.33333333  1.0
  O  O2648  1  0.03161667  0.30171667  0.66666667  1.0
  O  O2649  1  0.03161667  0.63505000  0.00000000  1.0
  O  O2650  1  0.03161667  0.63505000  0.33333333  1.0
  O  O2651  1  0.03161667  0.63505000  0.66666667  1.0
  O  O2652  1  0.03161667  0.96838333  0.00000000  1.0
  O  O2653  1  0.03161667  0.96838333  0.33333333  1.0
  O  O2654  1  0.03161667  0.96838333  0.66666667  1.0
  O  O2655  1  0.36495000  0.30171667  1.00000000  1.0
  O  O2656  1  0.36495000  0.30171667  0.33333333  1.0
  O  O2657  1  0.36495000  0.30171667  0.66666667  1.0
  O  O2658  1  0.36495000  0.63505000  1.00000000  1.0
  O  O2659  1  0.36495000  0.63505000  0.33333333  1.0
  O  O2660  1  0.36495000  0.63505000  0.66666667  1.0
  O  O2661  1  0.36495000  0.96838333  0.00000000  1.0
  O  O2662  1  0.36495000  0.96838333  0.33333333  1.0
  O  O2663  1  0.36495000  0.96838333  0.66666667  1.0
  O  O2664  1  0.69828333  0.30171667  1.00000000  1.0
  O  O2665  1  0.69828333  0.30171667  0.33333333  1.0
  O  O2666  1  0.69828333  0.30171667  0.66666667  1.0
  O  O2667  1  0.69828333  0.63505000  0.00000000  1.0
  O  O2668  1  0.69828333  0.63505000  0.33333333  1.0
  O  O2669  1  0.69828333  0.63505000  0.66666667  1.0
  O  O2670  1  0.69828333  0.96838333  1.00000000  1.0
  O  O2671  1  0.69828333  0.96838333  0.33333333  1.0
  O  O2672  1  0.69828333  0.96838333  0.66666667  1.0
  O  O2673  1  0.03161667  0.30171667  0.16666667  1.0
  O  O2674  1  0.03161667  0.30171667  0.50000000  1.0
  O  O2675  1  0.03161667  0.30171667  0.83333333  1.0
  O  O2676  1  0.03161667  0.63505000  0.16666667  1.0
  O  O2677  1  0.03161667  0.63505000  0.50000000  1.0
  O  O2678  1  0.03161667  0.63505000  0.83333333  1.0
  O  O2679  1  0.03161667  0.96838333  0.16666667  1.0
  O  O2680  1  0.03161667  0.96838333  0.50000000  1.0
  O  O2681  1  0.03161667  0.96838333  0.83333333  1.0
  O  O2682  1  0.36495000  0.30171667  0.16666667  1.0
  O  O2683  1  0.36495000  0.30171667  0.50000000  1.0
  O  O2684  1  0.36495000  0.30171667  0.83333333  1.0
  O  O2685  1  0.36495000  0.63505000  0.16666667  1.0
  O  O2686  1  0.36495000  0.63505000  0.50000000  1.0
  O  O2687  1  0.36495000  0.63505000  0.83333333  1.0
  O  O2688  1  0.36495000  0.96838333  0.16666667  1.0
  O  O2689  1  0.36495000  0.96838333  0.50000000  1.0
  O  O2690  1  0.36495000  0.96838333  0.83333333  1.0
  O  O2691  1  0.69828333  0.30171667  0.16666667  1.0
  O  O2692  1  0.69828333  0.30171667  0.50000000  1.0
  O  O2693  1  0.69828333  0.30171667  0.83333333  1.0
  O  O2694  1  0.69828333  0.63505000  0.16666667  1.0
  O  O2695  1  0.69828333  0.63505000  0.50000000  1.0
  O  O2696  1  0.69828333  0.63505000  0.83333333  1.0
  O  O2697  1  0.69828333  0.96838333  0.16666667  1.0
  O  O2698  1  0.69828333  0.96838333  0.50000000  1.0
  O  O2699  1  0.69828333  0.96838333  0.83333333  1.0
  O  O2700  1  0.19828333  0.13505000  0.00000000  1.0
  O  O2701  1  0.19828333  0.13505000  0.33333333  1.0
  O  O2702  1  0.19828333  0.13505000  0.66666667  1.0
  O  O2703  1  0.19828333  0.46838333  0.00000000  1.0
  O  O2704  1  0.19828333  0.46838333  0.33333333  1.0
  O  O2705  1  0.19828333  0.46838333  0.66666667  1.0
  O  O2706  1  0.19828333  0.80171667  1.00000000  1.0
  O  O2707  1  0.19828333  0.80171667  0.33333333  1.0
  O  O2708  1  0.19828333  0.80171667  0.66666667  1.0
  O  O2709  1  0.53161667  0.13505000  0.00000000  1.0
  O  O2710  1  0.53161667  0.13505000  0.33333333  1.0
  O  O2711  1  0.53161667  0.13505000  0.66666667  1.0
  O  O2712  1  0.53161667  0.46838333  1.00000000  1.0
  O  O2713  1  0.53161667  0.46838333  0.33333333  1.0
  O  O2714  1  0.53161667  0.46838333  0.66666667  1.0
  O  O2715  1  0.53161667  0.80171667  1.00000000  1.0
  O  O2716  1  0.53161667  0.80171667  0.33333333  1.0
  O  O2717  1  0.53161667  0.80171667  0.66666667  1.0
  O  O2718  1  0.86495000  0.13505000  0.00000000  1.0
  O  O2719  1  0.86495000  0.13505000  0.33333333  1.0
  O  O2720  1  0.86495000  0.13505000  0.66666667  1.0
  O  O2721  1  0.86495000  0.46838333  0.00000000  1.0
  O  O2722  1  0.86495000  0.46838333  0.33333333  1.0
  O  O2723  1  0.86495000  0.46838333  0.66666667  1.0
  O  O2724  1  0.86495000  0.80171667  1.00000000  1.0
  O  O2725  1  0.86495000  0.80171667  0.33333333  1.0
  O  O2726  1  0.86495000  0.80171667  0.66666667  1.0
  O  O2727  1  0.19828333  0.13505000  0.16666667  1.0
  O  O2728  1  0.19828333  0.13505000  0.50000000  1.0
  O  O2729  1  0.19828333  0.13505000  0.83333333  1.0
  O  O2730  1  0.19828333  0.46838333  0.16666667  1.0
  O  O2731  1  0.19828333  0.46838333  0.50000000  1.0
  O  O2732  1  0.19828333  0.46838333  0.83333333  1.0
  O  O2733  1  0.19828333  0.80171667  0.16666667  1.0
  O  O2734  1  0.19828333  0.80171667  0.50000000  1.0
  O  O2735  1  0.19828333  0.80171667  0.83333333  1.0
  O  O2736  1  0.53161667  0.13505000  0.16666667  1.0
  O  O2737  1  0.53161667  0.13505000  0.50000000  1.0
  O  O2738  1  0.53161667  0.13505000  0.83333333  1.0
  O  O2739  1  0.53161667  0.46838333  0.16666667  1.0
  O  O2740  1  0.53161667  0.46838333  0.50000000  1.0
  O  O2741  1  0.53161667  0.46838333  0.83333333  1.0
  O  O2742  1  0.53161667  0.80171667  0.16666667  1.0
  O  O2743  1  0.53161667  0.80171667  0.50000000  1.0
  O  O2744  1  0.53161667  0.80171667  0.83333333  1.0
  O  O2745  1  0.86495000  0.13505000  0.16666667  1.0
  O  O2746  1  0.86495000  0.13505000  0.50000000  1.0
  O  O2747  1  0.86495000  0.13505000  0.83333333  1.0
  O  O2748  1  0.86495000  0.46838333  0.16666667  1.0
  O  O2749  1  0.86495000  0.46838333  0.50000000  1.0
  O  O2750  1  0.86495000  0.46838333  0.83333333  1.0
  O  O2751  1  0.86495000  0.80171667  0.16666667  1.0
  O  O2752  1  0.86495000  0.80171667  0.50000000  1.0
  O  O2753  1  0.86495000  0.80171667  0.83333333  1.0
  O  O2754  1  0.19828333  0.30171667  0.00000000  1.0
  O  O2755  1  0.19828333  0.30171667  0.33333333  1.0
  O  O2756  1  0.19828333  0.30171667  0.66666667  1.0
  O  O2757  1  0.19828333  0.63505000  0.00000000  1.0
  O  O2758  1  0.19828333  0.63505000  0.33333333  1.0
  O  O2759  1  0.19828333  0.63505000  0.66666667  1.0
  O  O2760  1  0.19828333  0.96838333  0.00000000  1.0
  O  O2761  1  0.19828333  0.96838333  0.33333333  1.0
  O  O2762  1  0.19828333  0.96838333  0.66666667  1.0
  O  O2763  1  0.53161667  0.30171667  0.00000000  1.0
  O  O2764  1  0.53161667  0.30171667  0.33333333  1.0
  O  O2765  1  0.53161667  0.30171667  0.66666667  1.0
  O  O2766  1  0.53161667  0.63505000  0.00000000  1.0
  O  O2767  1  0.53161667  0.63505000  0.33333333  1.0
  O  O2768  1  0.53161667  0.63505000  0.66666667  1.0
  O  O2769  1  0.53161667  0.96838333  0.00000000  1.0
  O  O2770  1  0.53161667  0.96838333  0.33333333  1.0
  O  O2771  1  0.53161667  0.96838333  0.66666667  1.0
  O  O2772  1  0.86495000  0.30171667  0.00000000  1.0
  O  O2773  1  0.86495000  0.30171667  0.33333333  1.0
  O  O2774  1  0.86495000  0.30171667  0.66666667  1.0
  O  O2775  1  0.86495000  0.63505000  0.00000000  1.0
  O  O2776  1  0.86495000  0.63505000  0.33333333  1.0
  O  O2777  1  0.86495000  0.63505000  0.66666667  1.0
  O  O2778  1  0.86495000  0.96838333  0.00000000  1.0
  O  O2779  1  0.86495000  0.96838333  0.33333333  1.0
  O  O2780  1  0.86495000  0.96838333  0.66666667  1.0
  O  O2781  1  0.19828333  0.30171667  0.16666667  1.0
  O  O2782  1  0.19828333  0.30171667  0.50000000  1.0
  O  O2783  1  0.19828333  0.30171667  0.83333333  1.0
  O  O2784  1  0.19828333  0.63505000  0.16666667  1.0
  O  O2785  1  0.19828333  0.63505000  0.50000000  1.0
  O  O2786  1  0.19828333  0.63505000  0.83333333  1.0
  O  O2787  1  0.19828333  0.96838333  0.16666667  1.0
  O  O2788  1  0.19828333  0.96838333  0.50000000  1.0
  O  O2789  1  0.19828333  0.96838333  0.83333333  1.0
  O  O2790  1  0.53161667  0.30171667  0.16666667  1.0
  O  O2791  1  0.53161667  0.30171667  0.50000000  1.0
  O  O2792  1  0.53161667  0.30171667  0.83333333  1.0
  O  O2793  1  0.53161667  0.63505000  0.16666667  1.0
  O  O2794  1  0.53161667  0.63505000  0.50000000  1.0
  O  O2795  1  0.53161667  0.63505000  0.83333333  1.0
  O  O2796  1  0.53161667  0.96838333  0.16666667  1.0
  O  O2797  1  0.53161667  0.96838333  0.50000000  1.0
  O  O2798  1  0.53161667  0.96838333  0.83333333  1.0
  O  O2799  1  0.86495000  0.30171667  0.16666667  1.0
  O  O2800  1  0.86495000  0.30171667  0.50000000  1.0
  O  O2801  1  0.86495000  0.30171667  0.83333333  1.0
  O  O2802  1  0.86495000  0.63505000  0.16666667  1.0
  O  O2803  1  0.86495000  0.63505000  0.50000000  1.0
  O  O2804  1  0.86495000  0.63505000  0.83333333  1.0
  O  O2805  1  0.86495000  0.96838333  0.16666667  1.0
  O  O2806  1  0.86495000  0.96838333  0.50000000  1.0
  O  O2807  1  0.86495000  0.96838333  0.83333333  1.0
  O  O2808  1  0.08333333  0.00000000  0.01971667  1.0
  O  O2809  1  0.08333333  0.00000000  0.35305000  1.0
  O  O2810  1  0.08333333  0.00000000  0.68638333  1.0
  O  O2811  1  0.08333333  0.33333333  0.01971667  1.0
  O  O2812  1  0.08333333  0.33333333  0.35305000  1.0
  O  O2813  1  0.08333333  0.33333333  0.68638333  1.0
  O  O2814  1  0.08333333  0.66666667  0.01971667  1.0
  O  O2815  1  0.08333333  0.66666667  0.35305000  1.0
  O  O2816  1  0.08333333  0.66666667  0.68638333  1.0
  O  O2817  1  0.41666667  0.00000000  0.01971667  1.0
  O  O2818  1  0.41666667  0.00000000  0.35305000  1.0
  O  O2819  1  0.41666667  0.00000000  0.68638333  1.0
  O  O2820  1  0.41666667  0.33333333  0.01971667  1.0
  O  O2821  1  0.41666667  0.33333333  0.35305000  1.0
  O  O2822  1  0.41666667  0.33333333  0.68638333  1.0
  O  O2823  1  0.41666667  0.66666667  0.01971667  1.0
  O  O2824  1  0.41666667  0.66666667  0.35305000  1.0
  O  O2825  1  0.41666667  0.66666667  0.68638333  1.0
  O  O2826  1  0.75000000  0.00000000  0.01971667  1.0
  O  O2827  1  0.75000000  0.00000000  0.35305000  1.0
  O  O2828  1  0.75000000  0.00000000  0.68638333  1.0
  O  O2829  1  0.75000000  0.33333333  0.01971667  1.0
  O  O2830  1  0.75000000  0.33333333  0.35305000  1.0
  O  O2831  1  0.75000000  0.33333333  0.68638333  1.0
  O  O2832  1  0.75000000  0.66666667  0.01971667  1.0
  O  O2833  1  0.75000000  0.66666667  0.35305000  1.0
  O  O2834  1  0.75000000  0.66666667  0.68638333  1.0
  O  O2835  1  0.08333333  0.00000000  0.18638333  1.0
  O  O2836  1  0.08333333  0.00000000  0.51971667  1.0
  O  O2837  1  0.08333333  0.00000000  0.85305000  1.0
  O  O2838  1  0.08333333  0.33333333  0.18638333  1.0
  O  O2839  1  0.08333333  0.33333333  0.51971667  1.0
  O  O2840  1  0.08333333  0.33333333  0.85305000  1.0
  O  O2841  1  0.08333333  0.66666667  0.18638333  1.0
  O  O2842  1  0.08333333  0.66666667  0.51971667  1.0
  O  O2843  1  0.08333333  0.66666667  0.85305000  1.0
  O  O2844  1  0.41666667  0.00000000  0.18638333  1.0
  O  O2845  1  0.41666667  0.00000000  0.51971667  1.0
  O  O2846  1  0.41666667  0.00000000  0.85305000  1.0
  O  O2847  1  0.41666667  0.33333333  0.18638333  1.0
  O  O2848  1  0.41666667  0.33333333  0.51971667  1.0
  O  O2849  1  0.41666667  0.33333333  0.85305000  1.0
  O  O2850  1  0.41666667  0.66666667  0.18638333  1.0
  O  O2851  1  0.41666667  0.66666667  0.51971667  1.0
  O  O2852  1  0.41666667  0.66666667  0.85305000  1.0
  O  O2853  1  0.75000000  0.00000000  0.18638333  1.0
  O  O2854  1  0.75000000  0.00000000  0.51971667  1.0
  O  O2855  1  0.75000000  0.00000000  0.85305000  1.0
  O  O2856  1  0.75000000  0.33333333  0.18638333  1.0
  O  O2857  1  0.75000000  0.33333333  0.51971667  1.0
  O  O2858  1  0.75000000  0.33333333  0.85305000  1.0
  O  O2859  1  0.75000000  0.66666667  0.18638333  1.0
  O  O2860  1  0.75000000  0.66666667  0.51971667  1.0
  O  O2861  1  0.75000000  0.66666667  0.85305000  1.0
  O  O2862  1  0.08333333  0.16666667  0.01971667  1.0
  O  O2863  1  0.08333333  0.16666667  0.35305000  1.0
  O  O2864  1  0.08333333  0.16666667  0.68638333  1.0
  O  O2865  1  0.08333333  0.50000000  0.01971667  1.0
  O  O2866  1  0.08333333  0.50000000  0.35305000  1.0
  O  O2867  1  0.08333333  0.50000000  0.68638333  1.0
  O  O2868  1  0.08333333  0.83333333  0.01971667  1.0
  O  O2869  1  0.08333333  0.83333333  0.35305000  1.0
  O  O2870  1  0.08333333  0.83333333  0.68638333  1.0
  O  O2871  1  0.41666667  0.16666667  0.01971667  1.0
  O  O2872  1  0.41666667  0.16666667  0.35305000  1.0
  O  O2873  1  0.41666667  0.16666667  0.68638333  1.0
  O  O2874  1  0.41666667  0.50000000  0.01971667  1.0
  O  O2875  1  0.41666667  0.50000000  0.35305000  1.0
  O  O2876  1  0.41666667  0.50000000  0.68638333  1.0
  O  O2877  1  0.41666667  0.83333333  0.01971667  1.0
  O  O2878  1  0.41666667  0.83333333  0.35305000  1.0
  O  O2879  1  0.41666667  0.83333333  0.68638333  1.0
  O  O2880  1  0.75000000  0.16666667  0.01971667  1.0
  O  O2881  1  0.75000000  0.16666667  0.35305000  1.0
  O  O2882  1  0.75000000  0.16666667  0.68638333  1.0
  O  O2883  1  0.75000000  0.50000000  0.01971667  1.0
  O  O2884  1  0.75000000  0.50000000  0.35305000  1.0
  O  O2885  1  0.75000000  0.50000000  0.68638333  1.0
  O  O2886  1  0.75000000  0.83333333  0.01971667  1.0
  O  O2887  1  0.75000000  0.83333333  0.35305000  1.0
  O  O2888  1  0.75000000  0.83333333  0.68638333  1.0
  O  O2889  1  0.08333333  0.16666667  0.18638333  1.0
  O  O2890  1  0.08333333  0.16666667  0.51971667  1.0
  O  O2891  1  0.08333333  0.16666667  0.85305000  1.0
  O  O2892  1  0.08333333  0.50000000  0.18638333  1.0
  O  O2893  1  0.08333333  0.50000000  0.51971667  1.0
  O  O2894  1  0.08333333  0.50000000  0.85305000  1.0
  O  O2895  1  0.08333333  0.83333333  0.18638333  1.0
  O  O2896  1  0.08333333  0.83333333  0.51971667  1.0
  O  O2897  1  0.08333333  0.83333333  0.85305000  1.0
  O  O2898  1  0.41666667  0.16666667  0.18638333  1.0
  O  O2899  1  0.41666667  0.16666667  0.51971667  1.0
  O  O2900  1  0.41666667  0.16666667  0.85305000  1.0
  O  O2901  1  0.41666667  0.50000000  0.18638333  1.0
  O  O2902  1  0.41666667  0.50000000  0.51971667  1.0
  O  O2903  1  0.41666667  0.50000000  0.85305000  1.0
  O  O2904  1  0.41666667  0.83333333  0.18638333  1.0
  O  O2905  1  0.41666667  0.83333333  0.51971667  1.0
  O  O2906  1  0.41666667  0.83333333  0.85305000  1.0
  O  O2907  1  0.75000000  0.16666667  0.18638333  1.0
  O  O2908  1  0.75000000  0.16666667  0.51971667  1.0
  O  O2909  1  0.75000000  0.16666667  0.85305000  1.0
  O  O2910  1  0.75000000  0.50000000  0.18638333  1.0
  O  O2911  1  0.75000000  0.50000000  0.51971667  1.0
  O  O2912  1  0.75000000  0.50000000  0.85305000  1.0
  O  O2913  1  0.75000000  0.83333333  0.18638333  1.0
  O  O2914  1  0.75000000  0.83333333  0.51971667  1.0
  O  O2915  1  0.75000000  0.83333333  0.85305000  1.0
  O  O2916  1  0.25000000  0.00000000  0.01971667  1.0
  O  O2917  1  0.25000000  0.00000000  0.35305000  1.0
  O  O2918  1  0.25000000  0.00000000  0.68638333  1.0
  O  O2919  1  0.25000000  0.33333333  0.01971667  1.0
  O  O2920  1  0.25000000  0.33333333  0.35305000  1.0
  O  O2921  1  0.25000000  0.33333333  0.68638333  1.0
  O  O2922  1  0.25000000  0.66666667  0.01971667  1.0
  O  O2923  1  0.25000000  0.66666667  0.35305000  1.0
  O  O2924  1  0.25000000  0.66666667  0.68638333  1.0
  O  O2925  1  0.58333333  0.00000000  0.01971667  1.0
  O  O2926  1  0.58333333  0.00000000  0.35305000  1.0
  O  O2927  1  0.58333333  0.00000000  0.68638333  1.0
  O  O2928  1  0.58333333  0.33333333  0.01971667  1.0
  O  O2929  1  0.58333333  0.33333333  0.35305000  1.0
  O  O2930  1  0.58333333  0.33333333  0.68638333  1.0
  O  O2931  1  0.58333333  0.66666667  0.01971667  1.0
  O  O2932  1  0.58333333  0.66666667  0.35305000  1.0
  O  O2933  1  0.58333333  0.66666667  0.68638333  1.0
  O  O2934  1  0.91666667  0.00000000  0.01971667  1.0
  O  O2935  1  0.91666667  0.00000000  0.35305000  1.0
  O  O2936  1  0.91666667  0.00000000  0.68638333  1.0
  O  O2937  1  0.91666667  0.33333333  0.01971667  1.0
  O  O2938  1  0.91666667  0.33333333  0.35305000  1.0
  O  O2939  1  0.91666667  0.33333333  0.68638333  1.0
  O  O2940  1  0.91666667  0.66666667  0.01971667  1.0
  O  O2941  1  0.91666667  0.66666667  0.35305000  1.0
  O  O2942  1  0.91666667  0.66666667  0.68638333  1.0
  O  O2943  1  0.25000000  0.00000000  0.18638333  1.0
  O  O2944  1  0.25000000  0.00000000  0.51971667  1.0
  O  O2945  1  0.25000000  0.00000000  0.85305000  1.0
  O  O2946  1  0.25000000  0.33333333  0.18638333  1.0
  O  O2947  1  0.25000000  0.33333333  0.51971667  1.0
  O  O2948  1  0.25000000  0.33333333  0.85305000  1.0
  O  O2949  1  0.25000000  0.66666667  0.18638333  1.0
  O  O2950  1  0.25000000  0.66666667  0.51971667  1.0
  O  O2951  1  0.25000000  0.66666667  0.85305000  1.0
  O  O2952  1  0.58333333  0.00000000  0.18638333  1.0
  O  O2953  1  0.58333333  0.00000000  0.51971667  1.0
  O  O2954  1  0.58333333  0.00000000  0.85305000  1.0
  O  O2955  1  0.58333333  0.33333333  0.18638333  1.0
  O  O2956  1  0.58333333  0.33333333  0.51971667  1.0
  O  O2957  1  0.58333333  0.33333333  0.85305000  1.0
  O  O2958  1  0.58333333  0.66666667  0.18638333  1.0
  O  O2959  1  0.58333333  0.66666667  0.51971667  1.0
  O  O2960  1  0.58333333  0.66666667  0.85305000  1.0
  O  O2961  1  0.91666667  0.00000000  0.18638333  1.0
  O  O2962  1  0.91666667  0.00000000  0.51971667  1.0
  O  O2963  1  0.91666667  0.00000000  0.85305000  1.0
  O  O2964  1  0.91666667  0.33333333  0.18638333  1.0
  O  O2965  1  0.91666667  0.33333333  0.51971667  1.0
  O  O2966  1  0.91666667  0.33333333  0.85305000  1.0
  O  O2967  1  0.91666667  0.66666667  0.18638333  1.0
  O  O2968  1  0.91666667  0.66666667  0.51971667  1.0
  O  O2969  1  0.91666667  0.66666667  0.85305000  1.0
  O  O2970  1  0.25000000  0.16666667  0.01971667  1.0
  O  O2971  1  0.25000000  0.16666667  0.35305000  1.0
  O  O2972  1  0.25000000  0.16666667  0.68638333  1.0
  O  O2973  1  0.25000000  0.50000000  0.01971667  1.0
  O  O2974  1  0.25000000  0.50000000  0.35305000  1.0
  O  O2975  1  0.25000000  0.50000000  0.68638333  1.0
  O  O2976  1  0.25000000  0.83333333  0.01971667  1.0
  O  O2977  1  0.25000000  0.83333333  0.35305000  1.0
  O  O2978  1  0.25000000  0.83333333  0.68638333  1.0
  O  O2979  1  0.58333333  0.16666667  0.01971667  1.0
  O  O2980  1  0.58333333  0.16666667  0.35305000  1.0
  O  O2981  1  0.58333333  0.16666667  0.68638333  1.0
  O  O2982  1  0.58333333  0.50000000  0.01971667  1.0
  O  O2983  1  0.58333333  0.50000000  0.35305000  1.0
  O  O2984  1  0.58333333  0.50000000  0.68638333  1.0
  O  O2985  1  0.58333333  0.83333333  0.01971667  1.0
  O  O2986  1  0.58333333  0.83333333  0.35305000  1.0
  O  O2987  1  0.58333333  0.83333333  0.68638333  1.0
  O  O2988  1  0.91666667  0.16666667  0.01971667  1.0
  O  O2989  1  0.91666667  0.16666667  0.35305000  1.0
  O  O2990  1  0.91666667  0.16666667  0.68638333  1.0
  O  O2991  1  0.91666667  0.50000000  0.01971667  1.0
  O  O2992  1  0.91666667  0.50000000  0.35305000  1.0
  O  O2993  1  0.91666667  0.50000000  0.68638333  1.0
  O  O2994  1  0.91666667  0.83333333  0.01971667  1.0
  O  O2995  1  0.91666667  0.83333333  0.35305000  1.0
  O  O2996  1  0.91666667  0.83333333  0.68638333  1.0
  O  O2997  1  0.25000000  0.16666667  0.18638333  1.0
  O  O2998  1  0.25000000  0.16666667  0.51971667  1.0
  O  O2999  1  0.25000000  0.16666667  0.85305000  1.0
  O  O3000  1  0.25000000  0.50000000  0.18638333  1.0
  O  O3001  1  0.25000000  0.50000000  0.51971667  1.0
  O  O3002  1  0.25000000  0.50000000  0.85305000  1.0
  O  O3003  1  0.25000000  0.83333333  0.18638333  1.0
  O  O3004  1  0.25000000  0.83333333  0.51971667  1.0
  O  O3005  1  0.25000000  0.83333333  0.85305000  1.0
  O  O3006  1  0.58333333  0.16666667  0.18638333  1.0
  O  O3007  1  0.58333333  0.16666667  0.51971667  1.0
  O  O3008  1  0.58333333  0.16666667  0.85305000  1.0
  O  O3009  1  0.58333333  0.50000000  0.18638333  1.0
  O  O3010  1  0.58333333  0.50000000  0.51971667  1.0
  O  O3011  1  0.58333333  0.50000000  0.85305000  1.0
  O  O3012  1  0.58333333  0.83333333  0.18638333  1.0
  O  O3013  1  0.58333333  0.83333333  0.51971667  1.0
  O  O3014  1  0.58333333  0.83333333  0.85305000  1.0
  O  O3015  1  0.91666667  0.16666667  0.18638333  1.0
  O  O3016  1  0.91666667  0.16666667  0.51971667  1.0
  O  O3017  1  0.91666667  0.16666667  0.85305000  1.0
  O  O3018  1  0.91666667  0.50000000  0.18638333  1.0
  O  O3019  1  0.91666667  0.50000000  0.51971667  1.0
  O  O3020  1  0.91666667  0.50000000  0.85305000  1.0
  O  O3021  1  0.91666667  0.83333333  0.18638333  1.0
  O  O3022  1  0.91666667  0.83333333  0.51971667  1.0
  O  O3023  1  0.91666667  0.83333333  0.85305000  1.0
  O  O3024  1  1.00000000  0.08333333  0.14695000  1.0
  O  O3025  1  1.00000000  0.08333333  0.48028333  1.0
  O  O3026  1  1.00000000  0.08333333  0.81361667  1.0
  O  O3027  1  1.00000000  0.41666667  0.14695000  1.0
  O  O3028  1  1.00000000  0.41666667  0.48028333  1.0
  O  O3029  1  1.00000000  0.41666667  0.81361667  1.0
  O  O3030  1  1.00000000  0.75000000  0.14695000  1.0
  O  O3031  1  1.00000000  0.75000000  0.48028333  1.0
  O  O3032  1  1.00000000  0.75000000  0.81361667  1.0
  O  O3033  1  0.33333333  0.08333333  0.14695000  1.0
  O  O3034  1  0.33333333  0.08333333  0.48028333  1.0
  O  O3035  1  0.33333333  0.08333333  0.81361667  1.0
  O  O3036  1  0.33333333  0.41666667  0.14695000  1.0
  O  O3037  1  0.33333333  0.41666667  0.48028333  1.0
  O  O3038  1  0.33333333  0.41666667  0.81361667  1.0
  O  O3039  1  0.33333333  0.75000000  0.14695000  1.0
  O  O3040  1  0.33333333  0.75000000  0.48028333  1.0
  O  O3041  1  0.33333333  0.75000000  0.81361667  1.0
  O  O3042  1  0.66666667  0.08333333  0.14695000  1.0
  O  O3043  1  0.66666667  0.08333333  0.48028333  1.0
  O  O3044  1  0.66666667  0.08333333  0.81361667  1.0
  O  O3045  1  0.66666667  0.41666667  0.14695000  1.0
  O  O3046  1  0.66666667  0.41666667  0.48028333  1.0
  O  O3047  1  0.66666667  0.41666667  0.81361667  1.0
  O  O3048  1  0.66666667  0.75000000  0.14695000  1.0
  O  O3049  1  0.66666667  0.75000000  0.48028333  1.0
  O  O3050  1  0.66666667  0.75000000  0.81361667  1.0
  O  O3051  1  1.00000000  0.08333333  0.31361667  1.0
  O  O3052  1  1.00000000  0.08333333  0.64695000  1.0
  O  O3053  1  1.00000000  0.08333333  0.98028333  1.0
  O  O3054  1  1.00000000  0.41666667  0.31361667  1.0
  O  O3055  1  1.00000000  0.41666667  0.64695000  1.0
  O  O3056  1  1.00000000  0.41666667  0.98028333  1.0
  O  O3057  1  1.00000000  0.75000000  0.31361667  1.0
  O  O3058  1  1.00000000  0.75000000  0.64695000  1.0
  O  O3059  1  1.00000000  0.75000000  0.98028333  1.0
  O  O3060  1  0.33333333  0.08333333  0.31361667  1.0
  O  O3061  1  0.33333333  0.08333333  0.64695000  1.0
  O  O3062  1  0.33333333  0.08333333  0.98028333  1.0
  O  O3063  1  0.33333333  0.41666667  0.31361667  1.0
  O  O3064  1  0.33333333  0.41666667  0.64695000  1.0
  O  O3065  1  0.33333333  0.41666667  0.98028333  1.0
  O  O3066  1  0.33333333  0.75000000  0.31361667  1.0
  O  O3067  1  0.33333333  0.75000000  0.64695000  1.0
  O  O3068  1  0.33333333  0.75000000  0.98028333  1.0
  O  O3069  1  0.66666667  0.08333333  0.31361667  1.0
  O  O3070  1  0.66666667  0.08333333  0.64695000  1.0
  O  O3071  1  0.66666667  0.08333333  0.98028333  1.0
  O  O3072  1  0.66666667  0.41666667  0.31361667  1.0
  O  O3073  1  0.66666667  0.41666667  0.64695000  1.0
  O  O3074  1  0.66666667  0.41666667  0.98028333  1.0
  O  O3075  1  0.66666667  0.75000000  0.31361667  1.0
  O  O3076  1  0.66666667  0.75000000  0.64695000  1.0
  O  O3077  1  0.66666667  0.75000000  0.98028333  1.0
  O  O3078  1  0.00000000  0.25000000  0.14695000  1.0
  O  O3079  1  0.00000000  0.25000000  0.48028333  1.0
  O  O3080  1  0.00000000  0.25000000  0.81361667  1.0
  O  O3081  1  1.00000000  0.58333333  0.14695000  1.0
  O  O3082  1  1.00000000  0.58333333  0.48028333  1.0
  O  O3083  1  1.00000000  0.58333333  0.81361667  1.0
  O  O3084  1  1.00000000  0.91666667  0.14695000  1.0
  O  O3085  1  1.00000000  0.91666667  0.48028333  1.0
  O  O3086  1  1.00000000  0.91666667  0.81361667  1.0
  O  O3087  1  0.33333333  0.25000000  0.14695000  1.0
  O  O3088  1  0.33333333  0.25000000  0.48028333  1.0
  O  O3089  1  0.33333333  0.25000000  0.81361667  1.0
  O  O3090  1  0.33333333  0.58333333  0.14695000  1.0
  O  O3091  1  0.33333333  0.58333333  0.48028333  1.0
  O  O3092  1  0.33333333  0.58333333  0.81361667  1.0
  O  O3093  1  0.33333333  0.91666667  0.14695000  1.0
  O  O3094  1  0.33333333  0.91666667  0.48028333  1.0
  O  O3095  1  0.33333333  0.91666667  0.81361667  1.0
  O  O3096  1  0.66666667  0.25000000  0.14695000  1.0
  O  O3097  1  0.66666667  0.25000000  0.48028333  1.0
  O  O3098  1  0.66666667  0.25000000  0.81361667  1.0
  O  O3099  1  0.66666667  0.58333333  0.14695000  1.0
  O  O3100  1  0.66666667  0.58333333  0.48028333  1.0
  O  O3101  1  0.66666667  0.58333333  0.81361667  1.0
  O  O3102  1  0.66666667  0.91666667  0.14695000  1.0
  O  O3103  1  0.66666667  0.91666667  0.48028333  1.0
  O  O3104  1  0.66666667  0.91666667  0.81361667  1.0
  O  O3105  1  0.00000000  0.25000000  0.31361667  1.0
  O  O3106  1  0.00000000  0.25000000  0.64695000  1.0
  O  O3107  1  0.00000000  0.25000000  0.98028333  1.0
  O  O3108  1  1.00000000  0.58333333  0.31361667  1.0
  O  O3109  1  1.00000000  0.58333333  0.64695000  1.0
  O  O3110  1  1.00000000  0.58333333  0.98028333  1.0
  O  O3111  1  1.00000000  0.91666667  0.31361667  1.0
  O  O3112  1  1.00000000  0.91666667  0.64695000  1.0
  O  O3113  1  1.00000000  0.91666667  0.98028333  1.0
  O  O3114  1  0.33333333  0.25000000  0.31361667  1.0
  O  O3115  1  0.33333333  0.25000000  0.64695000  1.0
  O  O3116  1  0.33333333  0.25000000  0.98028333  1.0
  O  O3117  1  0.33333333  0.58333333  0.31361667  1.0
  O  O3118  1  0.33333333  0.58333333  0.64695000  1.0
  O  O3119  1  0.33333333  0.58333333  0.98028333  1.0
  O  O3120  1  0.33333333  0.91666667  0.31361667  1.0
  O  O3121  1  0.33333333  0.91666667  0.64695000  1.0
  O  O3122  1  0.33333333  0.91666667  0.98028333  1.0
  O  O3123  1  0.66666667  0.25000000  0.31361667  1.0
  O  O3124  1  0.66666667  0.25000000  0.64695000  1.0
  O  O3125  1  0.66666667  0.25000000  0.98028333  1.0
  O  O3126  1  0.66666667  0.58333333  0.31361667  1.0
  O  O3127  1  0.66666667  0.58333333  0.64695000  1.0
  O  O3128  1  0.66666667  0.58333333  0.98028333  1.0
  O  O3129  1  0.66666667  0.91666667  0.31361667  1.0
  O  O3130  1  0.66666667  0.91666667  0.64695000  1.0
  O  O3131  1  0.66666667  0.91666667  0.98028333  1.0
  O  O3132  1  0.16666667  0.08333333  0.14695000  1.0
  O  O3133  1  0.16666667  0.08333333  0.48028333  1.0
  O  O3134  1  0.16666667  0.08333333  0.81361667  1.0
  O  O3135  1  0.16666667  0.41666667  0.14695000  1.0
  O  O3136  1  0.16666667  0.41666667  0.48028333  1.0
  O  O3137  1  0.16666667  0.41666667  0.81361667  1.0
  O  O3138  1  0.16666667  0.75000000  0.14695000  1.0
  O  O3139  1  0.16666667  0.75000000  0.48028333  1.0
  O  O3140  1  0.16666667  0.75000000  0.81361667  1.0
  O  O3141  1  0.50000000  0.08333333  0.14695000  1.0
  O  O3142  1  0.50000000  0.08333333  0.48028333  1.0
  O  O3143  1  0.50000000  0.08333333  0.81361667  1.0
  O  O3144  1  0.50000000  0.41666667  0.14695000  1.0
  O  O3145  1  0.50000000  0.41666667  0.48028333  1.0
  O  O3146  1  0.50000000  0.41666667  0.81361667  1.0
  O  O3147  1  0.50000000  0.75000000  0.14695000  1.0
  O  O3148  1  0.50000000  0.75000000  0.48028333  1.0
  O  O3149  1  0.50000000  0.75000000  0.81361667  1.0
  O  O3150  1  0.83333333  0.08333333  0.14695000  1.0
  O  O3151  1  0.83333333  0.08333333  0.48028333  1.0
  O  O3152  1  0.83333333  0.08333333  0.81361667  1.0
  O  O3153  1  0.83333333  0.41666667  0.14695000  1.0
  O  O3154  1  0.83333333  0.41666667  0.48028333  1.0
  O  O3155  1  0.83333333  0.41666667  0.81361667  1.0
  O  O3156  1  0.83333333  0.75000000  0.14695000  1.0
  O  O3157  1  0.83333333  0.75000000  0.48028333  1.0
  O  O3158  1  0.83333333  0.75000000  0.81361667  1.0
  O  O3159  1  0.16666667  0.08333333  0.31361667  1.0
  O  O3160  1  0.16666667  0.08333333  0.64695000  1.0
  O  O3161  1  0.16666667  0.08333333  0.98028333  1.0
  O  O3162  1  0.16666667  0.41666667  0.31361667  1.0
  O  O3163  1  0.16666667  0.41666667  0.64695000  1.0
  O  O3164  1  0.16666667  0.41666667  0.98028333  1.0
  O  O3165  1  0.16666667  0.75000000  0.31361667  1.0
  O  O3166  1  0.16666667  0.75000000  0.64695000  1.0
  O  O3167  1  0.16666667  0.75000000  0.98028333  1.0
  O  O3168  1  0.50000000  0.08333333  0.31361667  1.0
  O  O3169  1  0.50000000  0.08333333  0.64695000  1.0
  O  O3170  1  0.50000000  0.08333333  0.98028333  1.0
  O  O3171  1  0.50000000  0.41666667  0.31361667  1.0
  O  O3172  1  0.50000000  0.41666667  0.64695000  1.0
  O  O3173  1  0.50000000  0.41666667  0.98028333  1.0
  O  O3174  1  0.50000000  0.75000000  0.31361667  1.0
  O  O3175  1  0.50000000  0.75000000  0.64695000  1.0
  O  O3176  1  0.50000000  0.75000000  0.98028333  1.0
  O  O3177  1  0.83333333  0.08333333  0.31361667  1.0
  O  O3178  1  0.83333333  0.08333333  0.64695000  1.0
  O  O3179  1  0.83333333  0.08333333  0.98028333  1.0
  O  O3180  1  0.83333333  0.41666667  0.31361667  1.0
  O  O3181  1  0.83333333  0.41666667  0.64695000  1.0
  O  O3182  1  0.83333333  0.41666667  0.98028333  1.0
  O  O3183  1  0.83333333  0.75000000  0.31361667  1.0
  O  O3184  1  0.83333333  0.75000000  0.64695000  1.0
  O  O3185  1  0.83333333  0.75000000  0.98028333  1.0
  O  O3186  1  0.16666667  0.25000000  0.14695000  1.0
  O  O3187  1  0.16666667  0.25000000  0.48028333  1.0
  O  O3188  1  0.16666667  0.25000000  0.81361667  1.0
  O  O3189  1  0.16666667  0.58333333  0.14695000  1.0
  O  O3190  1  0.16666667  0.58333333  0.48028333  1.0
  O  O3191  1  0.16666667  0.58333333  0.81361667  1.0
  O  O3192  1  0.16666667  0.91666667  0.14695000  1.0
  O  O3193  1  0.16666667  0.91666667  0.48028333  1.0
  O  O3194  1  0.16666667  0.91666667  0.81361667  1.0
  O  O3195  1  0.50000000  0.25000000  0.14695000  1.0
  O  O3196  1  0.50000000  0.25000000  0.48028333  1.0
  O  O3197  1  0.50000000  0.25000000  0.81361667  1.0
  O  O3198  1  0.50000000  0.58333333  0.14695000  1.0
  O  O3199  1  0.50000000  0.58333333  0.48028333  1.0
  O  O3200  1  0.50000000  0.58333333  0.81361667  1.0
  O  O3201  1  0.50000000  0.91666667  0.14695000  1.0
  O  O3202  1  0.50000000  0.91666667  0.48028333  1.0
  O  O3203  1  0.50000000  0.91666667  0.81361667  1.0
  O  O3204  1  0.83333333  0.25000000  0.14695000  1.0
  O  O3205  1  0.83333333  0.25000000  0.48028333  1.0
  O  O3206  1  0.83333333  0.25000000  0.81361667  1.0
  O  O3207  1  0.83333333  0.58333333  0.14695000  1.0
  O  O3208  1  0.83333333  0.58333333  0.48028333  1.0
  O  O3209  1  0.83333333  0.58333333  0.81361667  1.0
  O  O3210  1  0.83333333  0.91666667  0.14695000  1.0
  O  O3211  1  0.83333333  0.91666667  0.48028333  1.0
  O  O3212  1  0.83333333  0.91666667  0.81361667  1.0
  O  O3213  1  0.16666667  0.25000000  0.31361667  1.0
  O  O3214  1  0.16666667  0.25000000  0.64695000  1.0
  O  O3215  1  0.16666667  0.25000000  0.98028333  1.0
  O  O3216  1  0.16666667  0.58333333  0.31361667  1.0
  O  O3217  1  0.16666667  0.58333333  0.64695000  1.0
  O  O3218  1  0.16666667  0.58333333  0.98028333  1.0
  O  O3219  1  0.16666667  0.91666667  0.31361667  1.0
  O  O3220  1  0.16666667  0.91666667  0.64695000  1.0
  O  O3221  1  0.16666667  0.91666667  0.98028333  1.0
  O  O3222  1  0.50000000  0.25000000  0.31361667  1.0
  O  O3223  1  0.50000000  0.25000000  0.64695000  1.0
  O  O3224  1  0.50000000  0.25000000  0.98028333  1.0
  O  O3225  1  0.50000000  0.58333333  0.31361667  1.0
  O  O3226  1  0.50000000  0.58333333  0.64695000  1.0
  O  O3227  1  0.50000000  0.58333333  0.98028333  1.0
  O  O3228  1  0.50000000  0.91666667  0.31361667  1.0
  O  O3229  1  0.50000000  0.91666667  0.64695000  1.0
  O  O3230  1  0.50000000  0.91666667  0.98028333  1.0
  O  O3231  1  0.83333333  0.25000000  0.31361667  1.0
  O  O3232  1  0.83333333  0.25000000  0.64695000  1.0
  O  O3233  1  0.83333333  0.25000000  0.98028333  1.0
  O  O3234  1  0.83333333  0.58333333  0.31361667  1.0
  O  O3235  1  0.83333333  0.58333333  0.64695000  1.0
  O  O3236  1  0.83333333  0.58333333  0.98028333  1.0
  O  O3237  1  0.83333333  0.91666667  0.31361667  1.0
  O  O3238  1  0.83333333  0.91666667  0.64695000  1.0
  O  O3239  1  0.83333333  0.91666667  0.98028333  1.0
